@<TRIPOS>MOLECULE
lig.pdb
 27 29 0 0 0
SMALL
GASTEIGER

@<TRIPOS>ATOM
      1 BR1        13.3910    6.8780    4.2050 Br      1  LIG1       -0.0459
      2  C2        11.9910    8.0650    3.7740 C.ar    1  LIG1        0.0679
      3  C3        10.8390    8.2000    4.5180 C.ar    1  LIG1       -0.0060
      4  S4         9.7830    9.3710    3.8390 S.2     1  LIG1       -0.0886
      5  C5        10.8750    9.6830    2.5810 C.ar    1  LIG1        0.1024
      6  C6        12.0180    8.9270    2.6500 C.ar    1  LIG1        0.1618
      7  O7        13.0050    9.0610    1.7250 O.2     1  LIG1       -0.4394
      8  C8        12.8850   10.0430    0.7210 C.ar    1  LIG1        0.1932
      9  C9        11.7720   10.7980    0.6060 C.ar    1  LIG1        0.0439
     10  C10       10.6490   10.6470    1.5500 C.ar    1  LIG1        0.2010
     11  O11        9.6430   11.3400    1.4060 O.2     1  LIG1       -0.2864
     12  N12       13.9890   10.2090   -0.1180 N.pl3   1  LIG1       -0.2969
     13  C13       13.8570   10.7170   -1.5010 C.3     1  LIG1        0.0383
     14  C14       14.8620   10.0050   -2.4150 C.3     1  LIG1        0.0635
     15  O15       16.2110   10.1680   -1.9430 O.3     1  LIG1       -0.3767
     16  C16       16.3400    9.6240   -0.6230 C.3     1  LIG1        0.0635
     17  C17       15.3860   10.3050    0.3660 C.3     1  LIG1        0.0383
     18 H          10.6363    7.6640    5.3763 H       1  LIG1        0.0706
     19 H          11.7058   11.4921   -0.1548 H       1  LIG1        0.0707
     20 H          14.0501   11.7694   -1.5127 H       1  LIG1        0.0487
     21 H          12.8644   10.5282   -1.8531 H       1  LIG1        0.0487
     22 H          14.7866   10.4147   -3.4006 H       1  LIG1        0.0575
     23 H          14.6313    8.9602   -2.4182 H       1  LIG1        0.0575
     24 H          17.3461    9.7641   -0.2869 H       1  LIG1        0.0575
     25 H          16.0913    8.5841   -0.6646 H       1  LIG1        0.0575
     26 H          15.4633    9.8243    1.3188 H       1  LIG1        0.0487
     27 H          15.6539   11.3372    0.4533 H       1  LIG1        0.0487
@<TRIPOS>BOND
     1     1     2    1
     2     2     6   ar
     3     2     3   ar
     4     3     4   ar
     5     4     5   ar
     6     5    10   ar
     7     5     6   ar
     8     6     7   ar
     9     7     8   ar
    10     8    12    1
    11     8     9   ar
    12     9    10   ar
    13    10    11    2
    14    12    13    1
    15    12    17    1
    16    13    14    1
    17    14    15    1
    18    15    16    1
    19    16    17    1
    20     3    18    1
    21     9    19    1
    22    13    20    1
    23    13    21    1
    24    14    22    1
    25    14    23    1
    26    16    24    1
    27    16    25    1
    28    17    26    1
    29    17    27    1
