REMARK  Name = 
REMARK  1 active torsions:
REMARK  status: ('A' for Active; 'I' for Inactive)
REMARK    1  A    between atoms: C_8  and  N_12
REMARK                            x       y       z     vdW  Elec       q    Type
REMARK                         _______ _______ _______ _____ _____    ______ ____
ROOT
ATOM      1 BR   UNL     1       8.840   1.936  -1.506  0.00  0.00    -0.046 Br
ATOM      2  C   UNL     1       7.442   1.000  -0.657  0.00  0.00    +0.068 A 
ATOM      3  C   UNL     1       7.510  -0.326  -0.291  0.00  0.00    +0.065 A 
ATOM      4  S   UNL     1       6.052  -0.847   0.456  0.00  0.00    -0.089 S 
ATOM      5  C   UNL     1       5.367   0.696   0.291  0.00  0.00    +0.102 A 
ATOM      6  C   UNL     1       6.204   1.594  -0.316  0.00  0.00    +0.162 A 
ATOM      7  O   UNL     1       5.821   2.880  -0.522  0.00  0.00    -0.439 OA
ATOM      8  C   UNL     1       4.572   3.323  -0.041  0.00  0.00    +0.193 A 
ATOM      9  C   UNL     1       3.709   2.473   0.555  0.00  0.00    +0.115 A 
ATOM     10  C   UNL     1       4.054   1.045   0.747  0.00  0.00    +0.201 A 
ATOM     11  O   UNL     1       3.239   0.292   1.269  0.00  0.00    -0.286 OA
ENDROOT
BRANCH   8  12
ATOM     12  N   UNL     1       4.320   4.690  -0.200  0.00  0.00    -0.297 N 
ATOM     13  C   UNL     1       4.906   5.474  -1.313  0.00  0.00    +0.136 C 
ATOM     14  C   UNL     1       5.251   6.895  -0.842  0.00  0.00    +0.179 C 
ATOM     15  O   UNL     1       4.103   7.561  -0.293  0.00  0.00    -0.377 OA
ATOM     16  C   UNL     1       3.600   6.824   0.830  0.00  0.00    +0.179 C 
ATOM     17  C   UNL     1       3.186   5.400   0.432  0.00  0.00    +0.136 C 
ENDBRANCH   8  12
TORSDOF 1
