REMARK  Name = 
REMARK  1 active torsions:
REMARK  status: ('A' for Active; 'I' for Inactive)
REMARK    1  A    between atoms: C_8  and  N_12
REMARK                            x       y       z     vdW  Elec       q    Type
REMARK                         _______ _______ _______ _____ _____    ______ ____
ROOT
ATOM      1 BR   UNL     1       8.908   1.982  -1.484  0.00  0.00    -0.046 Br
ATOM      2  C   UNL     1       7.511   1.046  -0.633  0.00  0.00    +0.068 A 
ATOM      3  C   UNL     1       7.581  -0.278  -0.260  0.00  0.00    +0.065 A 
ATOM      4  S   UNL     1       6.123  -0.798   0.487  0.00  0.00    -0.089 S 
ATOM      5  C   UNL     1       5.435   0.741   0.314  0.00  0.00    +0.102 A 
ATOM      6  C   UNL     1       6.273   1.639  -0.296  0.00  0.00    +0.162 A 
ATOM      7  O   UNL     1       5.889   2.925  -0.508  0.00  0.00    -0.439 OA
ATOM      8  C   UNL     1       4.638   3.368  -0.028  0.00  0.00    +0.193 A 
ATOM      9  C   UNL     1       3.776   2.518   0.567  0.00  0.00    +0.115 A 
ATOM     10  C   UNL     1       4.123   1.092   0.765  0.00  0.00    +0.201 A 
ATOM     11  O   UNL     1       3.307   0.339   1.292  0.00  0.00    -0.286 OA
ENDROOT
BRANCH   8  12
ATOM     12  N   UNL     1       4.387   4.734  -0.189  0.00  0.00    -0.297 N 
ATOM     13  C   UNL     1       4.974   5.519  -1.301  0.00  0.00    +0.136 C 
ATOM     14  C   UNL     1       5.318   6.939  -0.830  0.00  0.00    +0.179 C 
ATOM     15  O   UNL     1       4.169   7.605  -0.282  0.00  0.00    -0.377 OA
ATOM     16  C   UNL     1       3.665   6.868   0.841  0.00  0.00    +0.179 C 
ATOM     17  C   UNL     1       3.252   5.444   0.443  0.00  0.00    +0.136 C 
ENDBRANCH   8  12
TORSDOF 1
