REMARK  Name = 
REMARK  1 active torsions:
REMARK  status: ('A' for Active; 'I' for Inactive)
REMARK    1  A    between atoms: C_8  and  N_12
REMARK                            x       y       z     vdW  Elec       q    Type
REMARK                         _______ _______ _______ _____ _____    ______ ____
ROOT
ATOM      1 BR   UNL     1       8.800   1.886  -1.379  0.00  0.00    -0.046 Br
ATOM      2  C   UNL     1       7.406   0.948  -0.526  0.00  0.00    +0.068 A 
ATOM      3  C   UNL     1       7.477  -0.377  -0.156  0.00  0.00    +0.065 A 
ATOM      4  S   UNL     1       6.019  -0.899   0.593  0.00  0.00    -0.089 S 
ATOM      5  C   UNL     1       5.332   0.641   0.423  0.00  0.00    +0.102 A 
ATOM      6  C   UNL     1       6.169   1.539  -0.188  0.00  0.00    +0.162 A 
ATOM      7  O   UNL     1       5.784   2.825  -0.397  0.00  0.00    -0.439 OA
ATOM      8  C   UNL     1       4.536   3.268   0.082  0.00  0.00    +0.193 A 
ATOM      9  C   UNL     1       3.673   2.420   0.678  0.00  0.00    +0.115 A 
ATOM     10  C   UNL     1       4.019   0.992   0.876  0.00  0.00    +0.201 A 
ATOM     11  O   UNL     1       3.204   0.241   1.403  0.00  0.00    -0.286 OA
ENDROOT
BRANCH   8  12
ATOM     12  N   UNL     1       4.288   4.635  -0.080  0.00  0.00    -0.297 N 
ATOM     13  C   UNL     1       4.880   5.415  -1.193  0.00  0.00    +0.136 C 
ATOM     14  C   UNL     1       5.225   6.838  -0.728  0.00  0.00    +0.179 C 
ATOM     15  O   UNL     1       4.076   7.507  -0.183  0.00  0.00    -0.377 OA
ATOM     16  C   UNL     1       3.571   6.775   0.941  0.00  0.00    +0.179 C 
ATOM     17  C   UNL     1       3.154   5.350   0.547  0.00  0.00    +0.136 C 
ENDBRANCH   8  12
TORSDOF 1
