REMARK  Name = 
REMARK  1 active torsions:
REMARK  status: ('A' for Active; 'I' for Inactive)
REMARK    1  A    between atoms: C_8  and  N_12
REMARK                            x       y       z     vdW  Elec       q    Type
REMARK                         _______ _______ _______ _____ _____    ______ ____
ROOT
ATOM      1 BR   UNL     1       8.797   2.025  -1.334  0.00  0.00    -0.046 Br
ATOM      2  C   UNL     1       7.396   1.091  -0.489  0.00  0.00    +0.068 A 
ATOM      3  C   UNL     1       7.461  -0.235  -0.121  0.00  0.00    +0.065 A 
ATOM      4  S   UNL     1       5.999  -0.756   0.621  0.00  0.00    -0.089 S 
ATOM      5  C   UNL     1       5.316   0.787   0.451  0.00  0.00    +0.102 A 
ATOM      6  C   UNL     1       6.158   1.685  -0.153  0.00  0.00    +0.162 A 
ATOM      7  O   UNL     1       5.775   2.971  -0.364  0.00  0.00    -0.439 OA
ATOM      8  C   UNL     1       4.524   3.415   0.111  0.00  0.00    +0.193 A 
ATOM      9  C   UNL     1       3.658   2.565   0.702  0.00  0.00    +0.115 A 
ATOM     10  C   UNL     1       4.001   1.138   0.897  0.00  0.00    +0.201 A 
ATOM     11  O   UNL     1       3.181   0.385   1.418  0.00  0.00    -0.286 OA
ENDROOT
BRANCH   8  12
ATOM     12  N   UNL     1       4.275   4.782  -0.047  0.00  0.00    -0.297 N 
ATOM     13  C   UNL     1       4.859   5.566  -1.160  0.00  0.00    +0.136 C 
ATOM     14  C   UNL     1       5.205   6.987  -0.688  0.00  0.00    +0.179 C 
ATOM     15  O   UNL     1       4.056   7.653  -0.139  0.00  0.00    -0.377 OA
ATOM     16  C   UNL     1       3.553   6.916   0.984  0.00  0.00    +0.179 C 
ATOM     17  C   UNL     1       3.139   5.491   0.585  0.00  0.00    +0.136 C 
ENDBRANCH   8  12
TORSDOF 1
