REMARK  Name = 
REMARK  1 active torsions:
REMARK  status: ('A' for Active; 'I' for Inactive)
REMARK    1  A    between atoms: C_8  and  N_12
REMARK                            x       y       z     vdW  Elec       q    Type
REMARK                         _______ _______ _______ _____ _____    ______ ____
ROOT
ATOM      1 BR   UNL     1       8.920   1.922  -1.433  0.00  0.00    -0.046 Br
ATOM      2  C   UNL     1       7.530   0.975  -0.581  0.00  0.00    +0.068 A 
ATOM      3  C   UNL     1       7.606  -0.351  -0.218  0.00  0.00    +0.065 A 
ATOM      4  S   UNL     1       6.153  -0.881   0.533  0.00  0.00    -0.089 S 
ATOM      5  C   UNL     1       5.460   0.661   0.375  0.00  0.00    +0.102 A 
ATOM      6  C   UNL     1       6.292   1.562  -0.233  0.00  0.00    +0.162 A 
ATOM      7  O   UNL     1       5.905   2.847  -0.435  0.00  0.00    -0.439 OA
ATOM      8  C   UNL     1       4.656   3.285   0.050  0.00  0.00    +0.193 A 
ATOM      9  C   UNL     1       3.798   2.432   0.647  0.00  0.00    +0.115 A 
ATOM     10  C   UNL     1       4.149   1.003   0.836  0.00  0.00    +0.201 A 
ATOM     11  O   UNL     1       3.337   0.247   1.364  0.00  0.00    -0.286 OA
ENDROOT
BRANCH   8  12
ATOM     12  N   UNL     1       4.402   4.652  -0.108  0.00  0.00    -0.297 N 
ATOM     13  C   UNL     1       4.988   5.436  -1.221  0.00  0.00    +0.136 C 
ATOM     14  C   UNL     1       5.330   6.858  -0.753  0.00  0.00    +0.179 C 
ATOM     15  O   UNL     1       4.180   7.523  -0.206  0.00  0.00    -0.377 OA
ATOM     16  C   UNL     1       3.677   6.787   0.918  0.00  0.00    +0.179 C 
ATOM     17  C   UNL     1       3.266   5.361   0.522  0.00  0.00    +0.136 C 
ENDBRANCH   8  12
TORSDOF 1
