REMARK  Name = 
REMARK  1 active torsions:
REMARK  status: ('A' for Active; 'I' for Inactive)
REMARK    1  A    between atoms: C_8  and  N_12
REMARK                            x       y       z     vdW  Elec       q    Type
REMARK                         _______ _______ _______ _____ _____    ______ ____
ROOT
ATOM      1 BR   UNL     1       7.504   1.497  -3.140  0.00  0.00    -0.046 Br
ATOM      2  C   UNL     1       6.700   0.745  -1.610  0.00  0.00    +0.068 A 
ATOM      3  C   UNL     1       6.912  -0.544  -1.177  0.00  0.00    +0.065 A 
ATOM      4  S   UNL     1       6.005  -0.887   0.244  0.00  0.00    -0.089 S 
ATOM      5  C   UNL     1       5.361   0.681   0.261  0.00  0.00    +0.102 A 
ATOM      6  C   UNL     1       5.810   1.458  -0.774  0.00  0.00    +0.162 A 
ATOM      7  O   UNL     1       5.410   2.748  -0.907  0.00  0.00    -0.439 OA
ATOM      8  C   UNL     1       4.542   3.317   0.047  0.00  0.00    +0.193 A 
ATOM      9  C   UNL     1       4.069   2.589   1.080  0.00  0.00    +0.115 A 
ATOM     10  C   UNL     1       4.450   1.165   1.254  0.00  0.00    +0.201 A 
ATOM     11  O   UNL     1       3.990   0.529   2.195  0.00  0.00    -0.286 OA
ENDROOT
BRANCH   8  12
ATOM     12  N   UNL     1       4.249   4.673  -0.139  0.00  0.00    -0.297 N 
ATOM     13  C   UNL     1       4.810   5.461  -1.264  0.00  0.00    +0.136 C 
ATOM     14  C   UNL     1       5.164   6.878  -0.784  0.00  0.00    +0.179 C 
ATOM     15  O   UNL     1       4.024   7.545  -0.219  0.00  0.00    -0.377 OA
ATOM     16  C   UNL     1       3.525   6.801   0.901  0.00  0.00    +0.179 C 
ATOM     17  C   UNL     1       3.111   5.380   0.494  0.00  0.00    +0.136 C 
ENDBRANCH   8  12
TORSDOF 1
