REMARK  Name = 
REMARK  1 active torsions:
REMARK  status: ('A' for Active; 'I' for Inactive)
REMARK    1  A    between atoms: C_8  and  N_12
REMARK                            x       y       z     vdW  Elec       q    Type
REMARK                         _______ _______ _______ _____ _____    ______ ____
ROOT
ATOM      1 BR   UNL     1       8.774   2.036  -1.406  0.00  0.00    -0.046 Br
ATOM      2  C   UNL     1       7.380   1.104  -0.548  0.00  0.00    +0.068 A 
ATOM      3  C   UNL     1       7.446  -0.221  -0.178  0.00  0.00    +0.065 A 
ATOM      4  S   UNL     1       5.991  -0.738   0.578  0.00  0.00    -0.089 S 
ATOM      5  C   UNL     1       5.308   0.806   0.412  0.00  0.00    +0.102 A 
ATOM      6  C   UNL     1       6.144   1.701  -0.203  0.00  0.00    +0.162 A 
ATOM      7  O   UNL     1       5.764   2.987  -0.411  0.00  0.00    -0.439 OA
ATOM      8  C   UNL     1       4.518   3.434   0.074  0.00  0.00    +0.193 A 
ATOM      9  C   UNL     1       3.656   2.588   0.675  0.00  0.00    +0.115 A 
ATOM     10  C   UNL     1       4.000   1.160   0.872  0.00  0.00    +0.201 A 
ATOM     11  O   UNL     1       3.185   0.411   1.404  0.00  0.00    -0.286 OA
ENDROOT
BRANCH   8  12
ATOM     12  N   UNL     1       4.268   4.802  -0.087  0.00  0.00    -0.297 N 
ATOM     13  C   UNL     1       4.855   5.582  -1.202  0.00  0.00    +0.136 C 
ATOM     14  C   UNL     1       5.201   7.004  -0.733  0.00  0.00    +0.179 C 
ATOM     15  O   UNL     1       4.054   7.672  -0.186  0.00  0.00    -0.377 OA
ATOM     16  C   UNL     1       3.550   6.938   0.938  0.00  0.00    +0.179 C 
ATOM     17  C   UNL     1       3.134   5.514   0.543  0.00  0.00    +0.136 C 
ENDBRANCH   8  12
TORSDOF 1
