@<TRIPOS>MOLECULE
LIG
   27    29     1     0     0
SMALL
bcc


@<TRIPOS>ATOM
      1 Br1         13.3910     6.8780     4.2050 br         1 LIG      -0.029100
      2 C2          11.9910     8.0650     3.7740 cc         1 LIG      -0.081900
      3 C3          10.8390     8.2000     4.5180 cd         1 LIG      -0.157100
      4 S4           9.7830     9.3710     3.8390 ss         1 LIG       0.213200
      5 C5          10.8750     9.6830     2.5810 cd         1 LIG      -0.279700
      6 C6          12.0180     8.9270     2.6500 cc         1 LIG       0.134100
      7 O7          13.0050     9.0610     1.7250 os         1 LIG      -0.207200
      8 C8          12.8850    10.0430     0.7210 cc         1 LIG       0.349100
      9 C9          11.7720    10.7980     0.6060 cd         1 LIG      -0.391200
     10 C10         10.6490    10.6470     1.5500 c          1 LIG       0.639900
     11 O11          9.6430    11.3400     1.4060 o          1 LIG      -0.564100
     12 N12         13.9890    10.2090    -0.1180 nh         1 LIG      -0.632400
     13 C13         13.8570    10.7170    -1.5010 c3         1 LIG       0.156800
     14 C14         14.8620    10.0050    -2.4150 c3         1 LIG       0.120900
     15 O15         16.2110    10.1680    -1.9430 os         1 LIG      -0.407600
     16 C16         16.3400     9.6240    -0.6230 c3         1 LIG       0.120900
     17 C17         15.3860    10.3050     0.3660 c3         1 LIG       0.156800
     18 H           10.6360     7.6640     5.3760 h4         1 LIG       0.190000
     19 H1          11.7060    11.4920    -0.1550 ha         1 LIG       0.169000
     20 H2          14.0500    11.7690    -1.5130 h1         1 LIG       0.062700
     21 H3          12.8640    10.5280    -1.8530 h1         1 LIG       0.062700
     22 H4          14.7870    10.4150    -3.4010 h1         1 LIG       0.062200
     23 H5          14.6310     8.9600    -2.4180 h1         1 LIG       0.062200
     24 H6          17.3460     9.7640    -0.2870 h1         1 LIG       0.062200
     25 H7          16.0910     8.5840    -0.6650 h1         1 LIG       0.062200
     26 H8          15.4630     9.8240     1.3190 h1         1 LIG       0.062700
     27 H9          15.6540    11.3370     0.4530 h1         1 LIG       0.062700
@<TRIPOS>BOND
     1     1     2 1   
     2     2     3 2   
     3     2     6 1   
     4     3     4 1   
     5     3    18 1   
     6     4     5 1   
     7     5     6 2   
     8     5    10 1   
     9     6     7 1   
    10     7     8 1   
    11     8     9 2   
    12     8    12 1   
    13     9    10 1   
    14     9    19 1   
    15    10    11 2   
    16    12    13 1   
    17    12    17 1   
    18    13    14 1   
    19    13    20 1   
    20    13    21 1   
    21    14    15 1   
    22    14    22 1   
    23    14    23 1   
    24    15    16 1   
    25    16    17 1   
    26    16    24 1   
    27    16    25 1   
    28    17    26 1   
    29    17    27 1   
@<TRIPOS>SUBSTRUCTURE
     1 LIG         1 TEMP              0 ****  ****    0 ROOT
