@<TRIPOS>MOLECULE
ligand-1.pdb
 40 44 0 0 0
SMALL
GASTEIGER

@<TRIPOS>ATOM
      1  C13       18.5700   12.6230  136.3590 C.3     1  5QQ1        0.3796
      2  C17       20.5070   12.0230  137.8840 C.ar    1  5QQ1       -0.0503
      3  C21       20.4670    8.1780  140.7000 C.ar    1  5QQ1        0.0283
      4  C22       19.1760    7.8240  140.3220 C.ar    1  5QQ1       -0.0430
      5  C24       19.1540    9.7650  138.8690 C.ar    1  5QQ1        0.0008
      6  C28       14.5960   11.6210  139.7840 C.ar    1  5QQ1       -0.0498
      7  F01       11.5600   10.4110  141.3880 F       1  5QQ1       -0.2055
      8  C02       12.4730   11.2540  140.8530 C.ar    1  5QQ1        0.1234
      9  C03       12.2220   12.6210  140.8340 C.ar    1  5QQ1       -0.0258
     10  C04       13.1630   13.4870  140.2830 C.ar    1  5QQ1       -0.0498
     11  C05       14.3630   13.0070  139.7330 C.ar    1  5QQ1        0.0045
     12  C06       15.3540   13.9410  139.0950 C.2     1  5QQ1        0.1357
     13  C07       15.3180   15.3390  139.2590 C.2     1  5QQ1        0.1337
     14  N08       16.2300   16.1890  138.7090 N.2     1  5QQ1       -0.0666
     15  C09       17.1740   15.6170  137.9580 C.cat   1  5QQ1        0.5154
     16  N10       18.1840   16.1720  137.2530 N.pl3   1  5QQ1        0.2012
     17  N11       18.8530   15.1240  136.6380 N.2     1  5QQ1        0.1532
     18  C12       18.2390   13.9930  136.9180 C.2     1  5QQ1        0.4372
     19  F14       19.3980   12.7110  135.3190 F       1  5QQ1       -0.1864
     20  F15       17.4620   12.0570  135.8810 F       1  5QQ1       -0.1864
     21  C16       19.2210   11.7280  137.4150 C.ar    1  5QQ1        0.0337
     22  C18       21.1310   11.2140  138.8290 C.ar    1  5QQ1       -0.0353
     23  C19       20.4730   10.0620  139.3240 C.ar    1  5QQ1        0.0710
     24  N20       21.1180    9.2650  140.2190 N.ar    1  5QQ1       -0.2550
     25  C23       18.5090    8.6160  139.3930 C.ar    1  5QQ1       -0.0511
     26  C25       18.5430   10.6130  137.9200 C.ar    1  5QQ1       -0.0432
     27  N26       17.1920   14.2290  137.7790 N.pl3   1  5QQ1        0.0046
     28  N27       16.3220   13.3640  138.3250 N.pl3   1  5QQ1       -0.0451
     29  C29       13.6600   10.7510  140.3350 C.ar    1  5QQ1       -0.0258
     30 HC17       21.0320   12.8890  137.5070 H       1  5QQ1        0.0623
     31 HC21       21.0060    7.5770  141.4170 H       1  5QQ1        0.0830
     32 HC22       18.7020    6.9450  140.7360 H       1  5QQ1        0.0633
     33 HC28       15.5090   11.1990  139.3880 H       1  5QQ1        0.0625
     34 HC03       11.3010   13.0090  141.2410 H       1  5QQ1        0.0646
     35 HC04       12.9160   14.5360  140.2600 H       1  5QQ1        0.0625
     36 HC07       14.5450   15.8260  139.8210 H       1  5QQ1        0.1046
     37 HC18       22.1290   11.4480  139.1730 H       1  5QQ1        0.0639
     38 HC23       17.5090    8.3620  139.0710 H       1  5QQ1        0.0625
     39 HC25       17.5420   10.3760  137.5910 H       1  5QQ1        0.0629
     40 HC29       13.8540    9.6890  140.3580 H       1  5QQ1        0.0646
@<TRIPOS>BOND
     1    19     1    1
     2    20     1    1
     3     1    18    1
     4     1    21    1
     5    17    18    2
     6    17    16    1
     7    18    27    1
     8    16    15    1
     9    21     2   ar
    10    21    26   ar
    11    30     2    1
    12    39    26    1
    13    27    15    1
    14    27    28    1
    15     2    22   ar
    16    26     5   ar
    17    15    14    2
    18    28    12    1
    19    14    13    1
    20    22    37    1
    21    22    23   ar
    22     5    23   ar
    23     5    25   ar
    24    38    25    1
    25    12    13    2
    26    12    11    1
    27    13    36    1
    28    23    24   ar
    29    33     6    1
    30    25     4   ar
    31    11     6   ar
    32    11    10   ar
    33     6    29   ar
    34    24     3   ar
    35    35    10    1
    36    10     9   ar
    37     4     3   ar
    38     4    32    1
    39    29    40    1
    40    29     8   ar
    41     3    31    1
    42     9     8   ar
    43     9    34    1
    44     8     7    1
