REMARK  Name = ligand-1.pdb
REMARK  3 active torsions:
REMARK  status: ('A' for Active; 'I' for Inactive)
REMARK    1  A    between atoms: C13_1  and  C12_18
REMARK    2  A    between atoms: C13_1  and  C16_21
REMARK    3  A    between atoms: C05_11  and  C06_12
REMARK                            x       y       z     vdW  Elec       q    Type
REMARK                         _______ _______ _______ _____ _____    ______ ____
ROOT
ATOM      1  C06 5QQ A   1      15.354  13.941 139.095  0.00  0.00    +0.136 C 
ATOM      2  C07 5QQ A   1      15.318  15.339 139.259  0.00  0.00    +0.238 C 
ATOM      3  N08 5QQ A   1      16.230  16.189 138.709  0.00  0.00    -0.067 NA
ATOM      4  C09 5QQ A   1      17.174  15.617 137.958  0.00  0.00    +0.515 C 
ATOM      5  N10 5QQ A   1      18.184  16.172 137.253  0.00  0.00    +0.201 NA
ATOM      6  N11 5QQ A   1      18.853  15.124 136.638  0.00  0.00    +0.153 NA
ATOM      7  C12 5QQ A   1      18.239  13.993 136.918  0.00  0.00    +0.437 C 
ATOM      8  N26 5QQ A   1      17.192  14.229 137.779  0.00  0.00    +0.005 N 
ATOM      9  N27 5QQ A   1      16.322  13.364 138.325  0.00  0.00    -0.045 NA
ENDROOT
BRANCH   1  15
ATOM     10  C28 5QQ A   1      14.596  11.621 139.784  0.00  0.00    +0.013 A 
ATOM     11  F01 5QQ A   1      11.560  10.411 141.388  0.00  0.00    -0.205 F 
ATOM     12  C02 5QQ A   1      12.473  11.254 140.853  0.00  0.00    +0.123 A 
ATOM     13  C03 5QQ A   1      12.222  12.621 140.834  0.00  0.00    +0.039 A 
ATOM     14  C04 5QQ A   1      13.163  13.487 140.283  0.00  0.00    +0.013 A 
ATOM     15  C05 5QQ A   1      14.363  13.007 139.733  0.00  0.00    +0.004 A 
ATOM     16  C29 5QQ A   1      13.660  10.751 140.335  0.00  0.00    +0.039 A 
ENDBRANCH   1  15
BRANCH   7  17
ATOM     17  C13 5QQ A   1      18.570  12.623 136.359  0.00  0.00    +0.380 C 
ATOM     18  F14 5QQ A   1      19.398  12.711 135.319  0.00  0.00    -0.186 F 
ATOM     19  F15 5QQ A   1      17.462  12.057 135.881  0.00  0.00    -0.186 F 
BRANCH  17  24
ATOM     20  C17 5QQ A   1      20.507  12.023 137.884  0.00  0.00    +0.012 A 
ATOM     21  C21 5QQ A   1      20.467   8.178 140.700  0.00  0.00    +0.111 A 
ATOM     22  C22 5QQ A   1      19.176   7.824 140.322  0.00  0.00    +0.020 A 
ATOM     23  C24 5QQ A   1      19.154   9.765 138.869  0.00  0.00    +0.001 A 
ATOM     24  C16 5QQ A   1      19.221  11.728 137.415  0.00  0.00    +0.034 A 
ATOM     25  C18 5QQ A   1      21.131  11.214 138.829  0.00  0.00    +0.029 A 
ATOM     26  C19 5QQ A   1      20.473  10.062 139.324  0.00  0.00    +0.071 A 
ATOM     27  N20 5QQ A   1      21.118   9.265 140.219  0.00  0.00    -0.255 NA
ATOM     28  C23 5QQ A   1      18.509   8.616 139.393  0.00  0.00    +0.011 A 
ATOM     29  C25 5QQ A   1      18.543  10.613 137.920  0.00  0.00    +0.020 A 
ENDBRANCH  17  24
ENDBRANCH   7  17
TORSDOF 3
