REMARK  Name = 
REMARK  1 active torsions:
REMARK  status: ('A' for Active; 'I' for Inactive)
REMARK    1  A    between atoms: C_8  and  N_12
REMARK                            x       y       z     vdW  Elec       q    Type
REMARK                         _______ _______ _______ _____ _____    ______ ____
ROOT
ATOM      1 BR   UNL     1       8.915   1.930  -1.378  0.00  0.00    -0.046 Br
ATOM      2  C   UNL     1       7.524   0.990  -0.519  0.00  0.00    +0.068 A 
ATOM      3  C   UNL     1       7.596  -0.335  -0.151  0.00  0.00    +0.065 A 
ATOM      4  S   UNL     1       6.141  -0.857   0.604  0.00  0.00    -0.089 S 
ATOM      5  C   UNL     1       5.453   0.685   0.437  0.00  0.00    +0.102 A 
ATOM      6  C   UNL     1       6.287   1.582  -0.176  0.00  0.00    +0.162 A 
ATOM      7  O   UNL     1       5.904   2.867  -0.385  0.00  0.00    -0.439 OA
ATOM      8  C   UNL     1       4.658   3.312   0.098  0.00  0.00    +0.193 A 
ATOM      9  C   UNL     1       3.796   2.465   0.698  0.00  0.00    +0.115 A 
ATOM     10  C   UNL     1       4.141   1.037   0.895  0.00  0.00    +0.201 A 
ATOM     11  O   UNL     1       3.327   0.286   1.425  0.00  0.00    -0.286 OA
ENDROOT
BRANCH   8  12
ATOM     12  N   UNL     1       4.410   4.679  -0.066  0.00  0.00    -0.297 N 
ATOM     13  C   UNL     1       5.005   5.455  -1.180  0.00  0.00    +0.136 C 
ATOM     14  C   UNL     1       5.350   6.879  -0.719  0.00  0.00    +0.179 C 
ATOM     15  O   UNL     1       4.201   7.550  -0.177  0.00  0.00    -0.377 OA
ATOM     16  C   UNL     1       3.695   6.821   0.949  0.00  0.00    +0.179 C 
ATOM     17  C   UNL     1       3.277   5.396   0.559  0.00  0.00    +0.136 C 
ENDBRANCH   8  12
TORSDOF 1
