REMARK  Name = 
REMARK  1 active torsions:
REMARK  status: ('A' for Active; 'I' for Inactive)
REMARK    1  A    between atoms: C_8  and  N_12
REMARK                            x       y       z     vdW  Elec       q    Type
REMARK                         _______ _______ _______ _____ _____    ______ ____
ROOT
ATOM      1 BR   UNL     1       8.867   1.929  -1.475  0.00  0.00    -0.046 Br
ATOM      2  C   UNL     1       7.477   0.978  -0.626  0.00  0.00    +0.068 A 
ATOM      3  C   UNL     1       7.556  -0.346  -0.260  0.00  0.00    +0.065 A 
ATOM      4  S   UNL     1       6.101  -0.879   0.488  0.00  0.00    -0.089 S 
ATOM      5  C   UNL     1       5.405   0.659   0.323  0.00  0.00    +0.102 A 
ATOM      6  C   UNL     1       6.235   1.562  -0.285  0.00  0.00    +0.162 A 
ATOM      7  O   UNL     1       5.846   2.846  -0.491  0.00  0.00    -0.439 OA
ATOM      8  C   UNL     1       4.595   3.282  -0.011  0.00  0.00    +0.193 A 
ATOM      9  C   UNL     1       3.737   2.428   0.584  0.00  0.00    +0.115 A 
ATOM     10  C   UNL     1       4.090   1.001   0.778  0.00  0.00    +0.201 A 
ATOM     11  O   UNL     1       3.279   0.243   1.303  0.00  0.00    -0.286 OA
ENDROOT
BRANCH   8  12
ATOM     12  N   UNL     1       4.341   4.648  -0.169  0.00  0.00    -0.297 N 
ATOM     13  C   UNL     1       4.928   5.432  -1.281  0.00  0.00    +0.136 C 
ATOM     14  C   UNL     1       5.268   6.855  -0.813  0.00  0.00    +0.179 C 
ATOM     15  O   UNL     1       4.116   7.519  -0.267  0.00  0.00    -0.377 OA
ATOM     16  C   UNL     1       3.614   6.782   0.856  0.00  0.00    +0.179 C 
ATOM     17  C   UNL     1       3.203   5.356   0.460  0.00  0.00    +0.136 C 
ENDBRANCH   8  12
TORSDOF 1
