REMARK  Name = 
REMARK  1 active torsions:
REMARK  status: ('A' for Active; 'I' for Inactive)
REMARK    1  A    between atoms: C_8  and  N_12
REMARK                            x       y       z     vdW  Elec       q    Type
REMARK                         _______ _______ _______ _____ _____    ______ ____
ROOT
ATOM      1 BR   UNL     1       8.850   1.895  -1.318  0.00  0.00    -0.046 Br
ATOM      2  C   UNL     1       7.456   0.967  -0.452  0.00  0.00    +0.068 A 
ATOM      3  C   UNL     1       7.524  -0.355  -0.072  0.00  0.00    +0.065 A 
ATOM      4  S   UNL     1       6.067  -0.867   0.685  0.00  0.00    -0.089 S 
ATOM      5  C   UNL     1       5.384   0.674   0.506  0.00  0.00    +0.102 A 
ATOM      6  C   UNL     1       6.221   1.566  -0.113  0.00  0.00    +0.162 A 
ATOM      7  O   UNL     1       5.841   2.850  -0.330  0.00  0.00    -0.439 OA
ATOM      8  C   UNL     1       4.594   3.300   0.149  0.00  0.00    +0.193 A 
ATOM      9  C   UNL     1       3.731   2.458   0.753  0.00  0.00    +0.115 A 
ATOM     10  C   UNL     1       4.074   1.030   0.960  0.00  0.00    +0.201 A 
ATOM     11  O   UNL     1       3.257   0.285   1.495  0.00  0.00    -0.286 OA
ENDROOT
BRANCH   8  12
ATOM     12  N   UNL     1       4.344   4.666  -0.022  0.00  0.00    -0.297 N 
ATOM     13  C   UNL     1       4.938   5.441  -1.137  0.00  0.00    +0.136 C 
ATOM     14  C   UNL     1       5.284   6.865  -0.675  0.00  0.00    +0.179 C 
ATOM     15  O   UNL     1       4.135   7.537  -0.133  0.00  0.00    -0.377 OA
ATOM     16  C   UNL     1       3.629   6.809   0.994  0.00  0.00    +0.179 C 
ATOM     17  C   UNL     1       3.210   5.384   0.602  0.00  0.00    +0.136 C 
ENDBRANCH   8  12
TORSDOF 1
