REMARK  Name = 
REMARK  1 active torsions:
REMARK  status: ('A' for Active; 'I' for Inactive)
REMARK    1  A    between atoms: C_8  and  N_12
REMARK                            x       y       z     vdW  Elec       q    Type
REMARK                         _______ _______ _______ _____ _____    ______ ____
ROOT
ATOM      1 BR   UNL     1       8.749   1.924  -1.438  0.00  0.00    -0.046 Br
ATOM      2  C   UNL     1       7.336   1.032  -0.564  0.00  0.00    +0.068 A 
ATOM      3  C   UNL     1       7.379  -0.288  -0.173  0.00  0.00    +0.065 A 
ATOM      4  S   UNL     1       5.915  -0.764   0.592  0.00  0.00    -0.089 S 
ATOM      5  C   UNL     1       5.260   0.788   0.399  0.00  0.00    +0.102 A 
ATOM      6  C   UNL     1       6.113   1.658  -0.228  0.00  0.00    +0.162 A 
ATOM      7  O   UNL     1       5.757   2.948  -0.455  0.00  0.00    -0.439 OA
ATOM      8  C   UNL     1       4.518   3.426   0.022  0.00  0.00    +0.193 A 
ATOM      9  C   UNL     1       3.639   2.603   0.630  0.00  0.00    +0.115 A 
ATOM     10  C   UNL     1       3.956   1.172   0.851  0.00  0.00    +0.201 A 
ATOM     11  O   UNL     1       3.127   0.446   1.392  0.00  0.00    -0.286 OA
ENDROOT
BRANCH   8  12
ATOM     12  N   UNL     1       4.296   4.795  -0.159  0.00  0.00    -0.297 N 
ATOM     13  C   UNL     1       4.902   5.552  -1.281  0.00  0.00    +0.136 C 
ATOM     14  C   UNL     1       5.267   6.975  -0.832  0.00  0.00    +0.179 C 
ATOM     15  O   UNL     1       4.129   7.668  -0.295  0.00  0.00    -0.377 OA
ATOM     16  C   UNL     1       3.614   6.957   0.838  0.00  0.00    +0.179 C 
ATOM     17  C   UNL     1       3.174   5.535   0.459  0.00  0.00    +0.136 C 
ENDBRANCH   8  12
TORSDOF 1
