REMARK  Name = 
REMARK  1 active torsions:
REMARK  status: ('A' for Active; 'I' for Inactive)
REMARK    1  A    between atoms: C_8  and  N_12
REMARK                            x       y       z     vdW  Elec       q    Type
REMARK                         _______ _______ _______ _____ _____    ______ ____
ROOT
ATOM      1 BR   UNL     1       8.763   1.926  -1.437  0.00  0.00    -0.046 Br
ATOM      2  C   UNL     1       7.371   0.989  -0.579  0.00  0.00    +0.068 A 
ATOM      3  C   UNL     1       7.444  -0.335  -0.205  0.00  0.00    +0.065 A 
ATOM      4  S   UNL     1       5.988  -0.855   0.549  0.00  0.00    -0.089 S 
ATOM      5  C   UNL     1       5.298   0.685   0.376  0.00  0.00    +0.102 A 
ATOM      6  C   UNL     1       6.133   1.581  -0.239  0.00  0.00    +0.162 A 
ATOM      7  O   UNL     1       5.748   2.864  -0.453  0.00  0.00    -0.439 OA
ATOM      8  C   UNL     1       4.501   3.309   0.029  0.00  0.00    +0.193 A 
ATOM      9  C   UNL     1       3.640   2.462   0.629  0.00  0.00    +0.115 A 
ATOM     10  C   UNL     1       3.986   1.035   0.831  0.00  0.00    +0.201 A 
ATOM     11  O   UNL     1       3.171   0.285   1.360  0.00  0.00    -0.286 OA
ENDROOT
BRANCH   8  12
ATOM     12  N   UNL     1       4.251   4.676  -0.140  0.00  0.00    -0.297 N 
ATOM     13  C   UNL     1       4.844   5.453  -1.253  0.00  0.00    +0.136 C 
ATOM     14  C   UNL     1       5.190   6.876  -0.789  0.00  0.00    +0.179 C 
ATOM     15  O   UNL     1       4.042   7.547  -0.245  0.00  0.00    -0.377 OA
ATOM     16  C   UNL     1       3.536   6.816   0.880  0.00  0.00    +0.179 C 
ATOM     17  C   UNL     1       3.117   5.391   0.487  0.00  0.00    +0.136 C 
ENDBRANCH   8  12
TORSDOF 1
