REMARK  Name = 
REMARK  1 active torsions:
REMARK  status: ('A' for Active; 'I' for Inactive)
REMARK    1  A    between atoms: C_8  and  N_12
REMARK                            x       y       z     vdW  Elec       q    Type
REMARK                         _______ _______ _______ _____ _____    ______ ____
ROOT
ATOM      1 BR   UNL     1       8.805   1.899  -1.336  0.00  0.00    -0.046 Br
ATOM      2  C   UNL     1       7.409   0.962  -0.483  0.00  0.00    +0.068 A 
ATOM      3  C   UNL     1       7.478  -0.363  -0.115  0.00  0.00    +0.065 A 
ATOM      4  S   UNL     1       6.020  -0.882   0.637  0.00  0.00    -0.089 S 
ATOM      5  C   UNL     1       5.335   0.660   0.469  0.00  0.00    +0.102 A 
ATOM      6  C   UNL     1       6.174   1.556  -0.141  0.00  0.00    +0.162 A 
ATOM      7  O   UNL     1       5.795   2.842  -0.349  0.00  0.00    -0.439 OA
ATOM      8  C   UNL     1       4.548   3.290   0.133  0.00  0.00    +0.193 A 
ATOM      9  C   UNL     1       3.682   2.443   0.729  0.00  0.00    +0.115 A 
ATOM     10  C   UNL     1       4.024   1.013   0.924  0.00  0.00    +0.201 A 
ATOM     11  O   UNL     1       3.206   0.263   1.449  0.00  0.00    -0.286 OA
ENDROOT
BRANCH   8  12
ATOM     12  N   UNL     1       4.305   4.659  -0.028  0.00  0.00    -0.297 N 
ATOM     13  C   UNL     1       4.901   5.434  -1.141  0.00  0.00    +0.136 C 
ATOM     14  C   UNL     1       5.245   6.859  -0.680  0.00  0.00    +0.179 C 
ATOM     15  O   UNL     1       4.096   7.530  -0.139  0.00  0.00    -0.377 OA
ATOM     16  C   UNL     1       3.590   6.801   0.987  0.00  0.00    +0.179 C 
ATOM     17  C   UNL     1       3.172   5.376   0.596  0.00  0.00    +0.136 C 
ENDBRANCH   8  12
TORSDOF 1
