REMARK  Name = 
REMARK  1 active torsions:
REMARK  status: ('A' for Active; 'I' for Inactive)
REMARK    1  A    between atoms: C_8  and  N_12
REMARK                            x       y       z     vdW  Elec       q    Type
REMARK                         _______ _______ _______ _____ _____    ______ ____
ROOT
ATOM      1 BR   UNL     1       8.919   2.038  -1.366  0.00  0.00    -0.046 Br
ATOM      2  C   UNL     1       7.524   1.100  -0.513  0.00  0.00    +0.068 A 
ATOM      3  C   UNL     1       7.596  -0.225  -0.142  0.00  0.00    +0.065 A 
ATOM      4  S   UNL     1       6.139  -0.747   0.608  0.00  0.00    -0.089 S 
ATOM      5  C   UNL     1       5.451   0.794   0.438  0.00  0.00    +0.102 A 
ATOM      6  C   UNL     1       6.287   1.692  -0.173  0.00  0.00    +0.162 A 
ATOM      7  O   UNL     1       5.902   2.977  -0.382  0.00  0.00    -0.439 OA
ATOM      8  C   UNL     1       4.653   3.419   0.096  0.00  0.00    +0.193 A 
ATOM      9  C   UNL     1       3.791   2.571   0.694  0.00  0.00    +0.115 A 
ATOM     10  C   UNL     1       4.139   1.141   0.892  0.00  0.00    +0.201 A 
ATOM     11  O   UNL     1       3.324   0.391   1.418  0.00  0.00    -0.286 OA
ENDROOT
BRANCH   8  12
ATOM     12  N   UNL     1       4.401   4.786  -0.064  0.00  0.00    -0.297 N 
ATOM     13  C   UNL     1       4.988   5.568  -1.177  0.00  0.00    +0.136 C 
ATOM     14  C   UNL     1       5.334   6.989  -0.708  0.00  0.00    +0.179 C 
ATOM     15  O   UNL     1       4.186   7.657  -0.160  0.00  0.00    -0.377 OA
ATOM     16  C   UNL     1       3.681   6.922   0.963  0.00  0.00    +0.179 C 
ATOM     17  C   UNL     1       3.266   5.497   0.567  0.00  0.00    +0.136 C 
ENDBRANCH   8  12
TORSDOF 1
