REMARK  Name = 2wd1_lig.pdb
REMARK  4 active torsions:
REMARK  status: ('A' for Active; 'I' for Inactive)
REMARK    1  A    between atoms: C10_2  and  C5_4
REMARK    2  A    between atoms: N9_12  and  S13_13
REMARK    3  A    between atoms: S13_13  and  C14_16
REMARK    4  A    between atoms: C21_17  and  N22_18
REMARK                            x       y       z     vdW  Elec       q    Type
REMARK                         _______ _______ _______ _____ _____    ______ ____
ROOT
ATOM      1  C5  ZZY A2347     106.997  22.767 139.142  0.00  0.00    +0.077 A 
ATOM      2  C3  ZZY A2347     105.774  22.166 139.163  0.00  0.00    +0.027 A 
ATOM      3  C1  ZZY A2347     104.694  22.828 139.714  0.00  0.00    +0.100 A 
ATOM      4  C6  ZZY A2347     107.125  24.023 139.680  0.00  0.00    +0.103 A 
ATOM      5  N4  ZZY A2347     106.045  24.658 140.219  0.00  0.00    -0.242 NA
ATOM      6  C2  ZZY A2347     104.856  24.069 140.235  0.00  0.00    +0.100 A 
ATOM      7  C8  ZZY A2347     103.692  24.495 140.725  0.00  0.00    +0.041 A 
ATOM      8  C7  ZZY A2347     102.866  23.466 140.438  0.00  0.00    +0.102 A 
ATOM      9  N9  ZZY A2347     103.460  22.449 139.841  0.00  0.00    -0.206 N 
ENDROOT
BRANCH   1  11
ATOM     10  O11 ZZY A2347     109.212  22.434 138.444  0.00  0.00    -0.267 OA
ATOM     11  C10 ZZY A2347     108.096  22.044 138.535  0.00  0.00    +0.286 C 
ATOM     12  N12 ZZY A2347     107.719  20.844 138.074  0.00  0.00    -0.084 NA
ENDBRANCH   1  11
BRANCH   9  13
ATOM     13  S13 ZZY A2347     102.730  21.045 139.398  0.00  0.00    +0.088 S 
ATOM     14  O16 ZZY A2347     101.555  21.161 138.957  0.00  0.00    -0.147 OA
ATOM     15  O15 ZZY A2347     103.404  20.450 138.442  0.00  0.00    -0.147 OA
BRANCH  13  16
ATOM     16  C14 ZZY A2347     102.622  19.891 140.715  0.00  0.00    +0.150 A 
ATOM     17  C21 ZZY A2347     101.642  19.822 141.771  0.00  0.00    +0.162 A 
ATOM     18  C20 ZZY A2347     103.615  18.932 140.727  0.00  0.00    +0.022 A 
ATOM     19  C18 ZZY A2347     103.675  17.977 141.712  0.00  0.00    +0.002 A 
ATOM     20  C17 ZZY A2347     102.743  17.946 142.713  0.00  0.00    +0.002 A 
ATOM     21  C19 ZZY A2347     101.692  18.786 142.698  0.00  0.00    +0.025 A 
BRANCH  17  22
ATOM     22  N22 ZZY A2347     100.527  20.738 142.006  0.00  0.00    +0.059 N 
ATOM     23  O23 ZZY A2347     100.673  21.968 141.858  0.00  0.00    -0.126 OA
ATOM     24  O24 ZZY A2347      99.438  20.410 142.333  0.00  0.00    -0.126 OA
ENDBRANCH  17  22
ENDBRANCH  13  16
ENDBRANCH   9  13
TORSDOF 4
