REMARK  Name = 4deg_lig.pdb
REMARK  5 active torsions:
REMARK  status: ('A' for Active; 'I' for Inactive)
REMARK    1  A    between atoms: C4_6  and  C3_7
REMARK    2  A    between atoms: C9_15  and  C10_16
REMARK    3  A    between atoms: C10_16  and  N6_17
REMARK    4  A    between atoms: N6_17  and  C11_18
REMARK    5  A    between atoms: C17_27  and  O1_28
REMARK                            x       y       z     vdW  Elec       q    Type
REMARK                         _______ _______ _______ _____ _____    ______ ____
ROOT
ATOM      1  C3  0JJ A1401      18.104  13.237  58.087  0.00  0.00    +0.109 A 
ATOM      2  C1  0JJ A1401      18.134  14.523  58.633  0.00  0.00    +0.025 A 
ATOM      3  C2  0JJ A1401      19.103  15.412  58.188  0.00  0.00    +0.042 A 
ATOM      4  N1  0JJ A1401      18.998  12.878  57.140  0.00  0.00    -0.162 NA
ATOM      5  N3  0JJ A1401      19.871  13.658  56.732  0.00  0.00    -0.193 N 
ATOM      6  C8  0JJ A1401      19.988  14.960  57.214  0.00  0.00    +0.186 A 
ATOM      7  N4  0JJ A1401      21.015  15.523  56.578  0.00  0.00    -0.127 NA
ATOM      8  N5  0JJ A1401      21.537  14.736  55.771  0.00  0.00    -0.130 NA
ATOM      9  C9  0JJ A1401      20.897  13.564  55.796  0.00  0.00    +0.185 A 
ENDROOT
BRANCH   1  15
ATOM     10  C7  0JJ A1401      14.084  11.352  60.337  0.00  0.00    +0.053 C 
ATOM     11  C5  0JJ A1401      15.331  11.379  59.452  0.00  0.00    +0.068 A 
ATOM     12  C6  0JJ A1401      16.079  12.493  59.300  0.00  0.00    +0.025 A 
ATOM     13  N2  0JJ A1401      15.741  10.285  58.795  0.00  0.00    -0.213 NA
ATOM     14  S1  0JJ A1401      17.107  10.717  57.959  0.00  0.00    +0.014 S 
ATOM     15  C4  0JJ A1401      17.136  12.323  58.494  0.00  0.00    +0.068 A 
ENDBRANCH   1  15
BRANCH   9  16
ATOM     16  C10 0JJ A1401      21.182  12.297  54.979  0.00  0.00    +0.179 C 
BRANCH  16  17
ATOM     17  N6  0JJ A1401      21.123  11.095  55.835  0.00  0.00    -0.228 NA
BRANCH  17  18
ATOM     18  C11 0JJ A1401      22.126  10.711  56.640  0.00  0.00    +0.086 A 
ATOM     19  C12 0JJ A1401      23.365  11.359  56.659  0.00  0.00    +0.038 A 
ATOM     20  C13 0JJ A1401      24.360  10.903  57.527  0.00  0.00    +0.100 A 
ATOM     21  N7  0JJ A1401      24.148   9.863  58.326  0.00  0.00    -0.242 NA
ATOM     22  C15 0JJ A1401      22.971   9.210  58.331  0.00  0.00    +0.103 A 
ATOM     23  C16 0JJ A1401      22.766   8.123  59.183  0.00  0.00    +0.059 A 
ATOM     24  C14 0JJ A1401      21.936   9.624  57.488  0.00  0.00    +0.114 A 
ATOM     25  N8  0JJ A1401      20.758   8.981  57.496  0.00  0.00    -0.238 NA
ATOM     26  C18 0JJ A1401      20.542   7.944  58.295  0.00  0.00    +0.136 A 
ATOM     27  C17 0JJ A1401      21.529   7.475  59.165  0.00  0.00    +0.159 A 
BRANCH  27  28
ATOM     28  O1  0JJ A1401      21.230   6.392  59.954  0.00  0.00    -0.470 OA
ATOM     29  C19 0JJ A1401      22.043   6.181  61.119  0.00  0.00    +0.253 C 
ENDBRANCH  27  28
ENDBRANCH  17  18
ENDBRANCH  16  17
ENDBRANCH   9  16
TORSDOF 5
