@<TRIPOS>MOLECULE
4dei_lig.pdb
 33 37 0 0 0
SMALL
GASTEIGER

@<TRIPOS>ATOM
      1  CBF       28.3430   31.0880   60.9540 C.3   1401  0JL1401     0.0528
      2  CBE       27.1360   31.2780   60.0330 C.ar  1401  0JL1401     0.0692
      3  CBB       26.2790   30.2700   59.7760 C.ar  1401  0JL1401     0.0411
      4  NBD       26.8790   32.4560   59.4460 N.ar  1401  0JL1401    -0.2120
      5  S         25.5220   32.2440   58.5510 S.2   1401  0JL1401     0.0306
      6  CBA       25.2840   30.6250   58.9590 C.ar  1401  0JL1401     0.1156
      7  NAZ       24.2530   29.7840   58.4940 N.ar  1401  0JL1401    -0.2649
      8  CAT       23.3240   30.2490   57.5350 C.ar  1401  0JL1401     0.2841
      9  CAS       22.3180   29.3940   57.0760 C.ar  1401  0JL1401     0.1553
     10  OBG       23.3940   31.4020   57.1160 O.2   1401  0JL1401    -0.2649
     11  CAY       24.1480   28.4530   58.9550 C.ar  1401  0JL1401     0.0852
     12  CAX       23.1390   27.6130   58.4820 C.ar  1401  0JL1401     0.0417
     13  CAW       22.2270   28.0960   57.5420 C.ar  1401  0JL1401     0.1279
     14  NAV       21.1790   27.5690   56.9010 N.ar  1401  0JL1401    -0.1286
     15  NAU       20.6840   28.4240   56.1490 N.ar  1401  0JL1401    -0.0635
     16  NAR       21.3120   29.4910   56.2100 N.ar  1401  0JL1401    -0.2248
     17  CAP       20.9920   30.7180   55.4480 C.3   1401  0JL1401     0.1292
     18  CAQ       20.3170   30.4010   54.1060 C.3   1401  0JL1401     0.0313
     19  CAO       20.1110   31.6020   56.3390 C.ar  1401  0JL1401     0.0000
     20  CAI       20.6620   32.7610   56.8760 C.ar  1401  0JL1401    -0.0008
     21  CAH       19.8920   33.5700   57.6990 C.ar  1401  0JL1401     0.0205
     22  CAG       20.4400   34.7290   58.2300 C.ar  1401  0JL1401     0.0400
     23  CAN       18.7920   31.2510   56.6380 C.ar  1401  0JL1401    -0.0009
     24  CAM       18.0190   32.0680   57.4620 C.ar  1401  0JL1401     0.0188
     25  CAL       18.5720   33.2300   57.9950 C.ar  1401  0JL1401     0.0815
     26  NAK       17.8350   34.0220   58.7920 N.ar  1401  0JL1401    -0.2407
     27  CAJ       18.3360   35.1360   59.3140 C.ar  1401  0JL1401     0.1356
     28  CAF       19.6520   35.5200   59.0570 C.ar  1401  0JL1401     0.1578
     29  OAE       20.1750   36.6610   59.5870 O.3   1401  0JL1401    -0.4712
     30  CAD       20.4470   36.4990   60.9980 C.3   1401  0JL1401     0.2374
     31  CAC       20.1730   37.8080   61.7110 C.3   1401  0JL1401     0.1894
     32  OAB       21.3920   38.5560   61.7820 O.3   1401  0JL1401    -0.3471
     33  CAA       21.1090   39.9610   61.6620 C.3   1401  0JL1401     0.1743
@<TRIPOS>BOND
     1    31    32    1
     2    30    31    1
     3    28    29    1
     4    22    28   ar
     5    21    22   ar
     6    21    25   ar
     7    20    21   ar
     8    27    28   ar
     9    25    26   ar
    10    24    25   ar
    11    23    24   ar
    12    19    20   ar
    13    19    23   ar
    14    17    18    1
    15    17    19    1
    16     9    13   ar
    17     9    16   ar
    18     8     9   ar
    19     8    10    2
    20    13    14   ar
    21    12    13   ar
    22    11    12   ar
    23     6     7    1
    24     3     6   ar
    25     2     3   ar
    26     2     4   ar
    27     1     2    1
    28    26    27   ar
    29    16    17    1
    30    15    16   ar
    31    14    15   ar
    32     7     8   ar
    33     7    11   ar
    34     4     5   ar
    35    32    33    1
    36    29    30    1
    37     5     6   ar
