REMARK  Name = 4r1v_lig.pdb
REMARK  8 active torsions:
REMARK  status: ('A' for Active; 'I' for Inactive)
REMARK    1  A    between atoms: C1_1  and  C7_7
REMARK    2  A    between atoms: C4_4  and  C36_24
REMARK    3  A    between atoms: C18_13  and  C20_32
REMARK    4  A    between atoms: O26_18  and  C25_33
REMARK    5  A    between atoms: O26_18  and  C28_35
REMARK    6  A    between atoms: N11_27  and  C13_30
REMARK    7  A    between atoms: C13_30  and  C14_31
REMARK    8  A    between atoms: C28_35  and  C29_36
REMARK                            x       y       z     vdW  Elec       q    Type
REMARK                         _______ _______ _______ _____ _____    ______ ____
ROOT
ATOM      1  C15 3E8 A1401     105.514  23.350 140.817  0.00  0.00    -0.002 A 
ATOM      2  C16 3E8 A1401     107.235  22.169 139.672  0.00  0.00    +0.001 A 
ATOM      3  C17 3E8 A1401     106.367  24.433 140.977  0.00  0.00    -0.000 A 
ATOM      4  C18 3E8 A1401     108.087  23.252 139.822  0.00  0.00    +0.035 A 
ATOM      5  C19 3E8 A1401     107.652  24.381 140.504  0.00  0.00    +0.003 A 
ATOM      6  C14 3E8 A1401     105.933  22.209 140.161  0.00  0.00    +0.002 A 
ENDROOT
BRANCH   4  10
ATOM      7  N22 3E8 A1401     109.918  21.899 138.924  0.00  0.00    -0.222 NA
ATOM      8  C23 3E8 A1401     111.669  24.007 139.339  0.00  0.00    +0.139 A 
ATOM      9  C24 3E8 A1401     111.255  21.746 138.670  0.00  0.00    +0.139 A 
ATOM     10  C20 3E8 A1401     109.477  23.122 139.402  0.00  0.00    +0.163 A 
ATOM     11  C25 3E8 A1401     112.127  22.782 138.874  0.00  0.00    +0.177 A 
ATOM     12  N21 3E8 A1401     110.335  24.165 139.623  0.00  0.00    -0.222 NA
BRANCH  11  13
ATOM     13  O26 3E8 A1401     113.440  22.552 138.576  0.00  0.00    -0.472 OA
BRANCH  13  14
ATOM     14  C28 3E8 A1401     114.461  23.378 139.107  0.00  0.00    +0.205 C 
BRANCH  14  20
ATOM     15  C30 3E8 A1401     116.095  21.685 138.232  0.00  0.00    +0.021 C 
ATOM     16  C31 3E8 A1401     115.716  21.827 140.681  0.00  0.00    +0.021 C 
ATOM     17  C32 3E8 A1401     117.506  21.126 138.515  0.00  0.00    +0.072 C 
ATOM     18  C33 3E8 A1401     117.123  21.257 140.976  0.00  0.00    +0.072 C 
ATOM     19  C35 3E8 A1401     118.918  19.885 140.045  0.00  0.00    +0.090 C 
ATOM     20  C29 3E8 A1401     115.771  22.632 139.375  0.00  0.00    +0.046 C 
ATOM     21  N34 3E8 A1401     117.562  20.432 139.826  0.00  0.00    -0.272 NA
ENDBRANCH  14  20
ENDBRANCH  13  14
ENDBRANCH  11  13
ENDBRANCH   4  10
BRANCH   6  22
ATOM     22  C13 3E8 A1401     105.001  21.017 140.013  0.00  0.00    +0.157 C 
BRANCH  22  27
ATOM     23  C7  3E8 A1401     106.816  18.427 141.724  0.00  0.00    +0.101 A 
ATOM     24  C8  3E8 A1401     106.069  18.268 142.992  0.00  0.00    +0.026 A 
ATOM     25  C12 3E8 A1401     104.545  19.999 142.254  0.00  0.00    +0.277 A 
ATOM     26  N9  3E8 A1401     106.405  19.287 140.836  0.00  0.00    -0.167 NA
ATOM     27  N11 3E8 A1401     105.270  20.057 141.088  0.00  0.00    -0.212 N 
ATOM     28  O27 3E8 A1401     103.570  20.711 142.405  0.00  0.00    -0.266 OA
ATOM     29  C10 3E8 A1401     104.985  19.020 143.243  0.00  0.00    +0.064 A 
BRANCH  23  30
ATOM     30  C1  3E8 A1401     108.006  17.626 141.386  0.00  0.00    +0.020 A 
ATOM     31  C2  3E8 A1401     108.236  16.392 141.982  0.00  0.00    +0.012 A 
ATOM     32  C3  3E8 A1401     108.886  18.099 140.411  0.00  0.00    +0.002 A 
ATOM     33  C4  3E8 A1401     109.353  15.640 141.614  0.00  0.00    +0.069 A 
ATOM     34  C5  3E8 A1401     110.001  17.344 140.065  0.00  0.00    +0.001 A 
ATOM     35  C6  3E8 A1401     110.238  16.103 140.654  0.00  0.00    +0.010 A 
BRANCH  33  36
ATOM     36  C36 3E8 A1401     109.553  14.366 142.219  0.00  0.00    +0.100 C 
ATOM     37  N37 3E8 A1401     109.644  13.303 142.672  0.00  0.00    -0.191 NA
ENDBRANCH  33  36
ENDBRANCH  23  30
ENDBRANCH  22  27
ENDBRANCH   6  22
TORSDOF 8
