@<TRIPOS>MOLECULE
4r1v_lig.pdb
 37 41 0 0 0
SMALL
GASTEIGER

@<TRIPOS>ATOM
      1  C1       108.0060   17.6260  141.3860 C.ar  1401  3E81401     0.0200
      2  C2       108.2360   16.3920  141.9820 C.ar  1401  3E81401     0.0118
      3  C3       108.8860   18.0990  140.4110 C.ar  1401  3E81401     0.0016
      4  C4       109.3530   15.6400  141.6140 C.ar  1401  3E81401     0.0685
      5  C5       110.0010   17.3440  140.0650 C.ar  1401  3E81401     0.0007
      6  C6       110.2380   16.1030  140.6540 C.ar  1401  3E81401     0.0103
      7  C7       106.8160   18.4270  141.7240 C.ar  1401  3E81401     0.1012
      8  C8       106.0690   18.2680  142.9920 C.ar  1401  3E81401     0.0258
      9  C12      104.5450   19.9990  142.2540 C.ar  1401  3E81401     0.2768
     10  C15      105.5140   23.3500  140.8170 C.ar  1401  3E81401    -0.0023
     11  C16      107.2350   22.1690  139.6720 C.ar  1401  3E81401     0.0007
     12  C17      106.3670   24.4330  140.9770 C.ar  1401  3E81401    -0.0002
     13  C18      108.0870   23.2520  139.8220 C.ar  1401  3E81401     0.0355
     14  C19      107.6520   24.3810  140.5040 C.ar  1401  3E81401     0.0030
     15  N22      109.9180   21.8990  138.9240 N.ar  1401  3E81401    -0.2218
     16  C23      111.6690   24.0070  139.3390 C.ar  1401  3E81401     0.1389
     17  C24      111.2550   21.7460  138.6700 C.ar  1401  3E81401     0.1389
     18  O26      113.4400   22.5520  138.5760 O.3   1401  3E81401    -0.4723
     19  C30      116.0950   21.6850  138.2320 C.3   1401  3E81401     0.0211
     20  C31      115.7160   21.8270  140.6810 C.3   1401  3E81401     0.0211
     21  C32      117.5060   21.1260  138.5150 C.3   1401  3E81401     0.0723
     22  C33      117.1230   21.2570  140.9760 C.3   1401  3E81401     0.0723
     23  C35      118.9180   19.8850  140.0450 C.3   1401  3E81401     0.0896
     24  C36      109.5530   14.3660  142.2190 C.1   1401  3E81401     0.1004
     25  N37      109.6440   13.3030  142.6720 N.1   1401  3E81401    -0.1908
     26  N9       106.4050   19.2870  140.8360 N.ar  1401  3E81401    -0.1665
     27  N11      105.2700   20.0570  141.0880 N.ar  1401  3E81401    -0.2121
     28  O27      103.5700   20.7110  142.4050 O.2   1401  3E81401    -0.2655
     29  C10      104.9850   19.0200  143.2430 C.ar  1401  3E81401     0.0638
     30  C13      105.0010   21.0170  140.0130 C.3   1401  3E81401     0.1571
     31  C14      105.9330   22.2090  140.1610 C.ar  1401  3E81401     0.0023
     32  C20      109.4770   23.1220  139.4020 C.ar  1401  3E81401     0.1625
     33  C25      112.1270   22.7820  138.8740 C.ar  1401  3E81401     0.1767
     34  N21      110.3350   24.1650  139.6230 N.ar  1401  3E81401    -0.2218
     35  C28      114.4610   23.3780  139.1070 C.3   1401  3E81401     0.2055
     36  C29      115.7710   22.6320  139.3750 C.3   1401  3E81401     0.0465
     37  N34      117.5620   20.4320  139.8260 N.3   1401  3E81401    -0.2715
@<TRIPOS>BOND
     1     1     2   ar
     2     1     3   ar
     3     1     7    1
     4     9    27   ar
     5     9    28    2
     6     9    29   ar
     7    30    31    1
     8    10    12   ar
     9    10    31   ar
    10    11    13   ar
    11    11    31   ar
    12    12    14   ar
    13    13    14   ar
    14    13    32    1
    15     2     4   ar
    16    32    34   ar
    17    16    33   ar
    18    16    34   ar
    19    17    33   ar
    20    35    36    1
    21     3     5   ar
    22    19    21    1
    23    19    36    1
    24    20    22    1
    25    20    36    1
    26    21    37    1
    27    22    37    1
    28    23    37    1
    29    24    25    3
    30     4     6   ar
    31     4    24    1
    32     5     6   ar
    33     7     8   ar
    34     7    26   ar
    35     8    29   ar
    36    27    30    1
    37    15    17   ar
    38    15    32   ar
    39    26    27   ar
    40    18    33    1
    41    18    35    1
