REMARK  Name = 5eob_lig.pdb
REMARK  3 active torsions:
REMARK  status: ('A' for Active; 'I' for Inactive)
REMARK    1  A    between atoms: C13_1  and  C12_18
REMARK    2  A    between atoms: C13_1  and  C16_21
REMARK    3  A    between atoms: C05_11  and  C06_12
REMARK                            x       y       z     vdW  Elec       q    Type
REMARK                         _______ _______ _______ _____ _____    ______ ____
ROOT
ATOM      1  C06 5QQ A1401       0.262   8.473  27.881  0.00  0.00    +0.143 C 
ATOM      2  C07 5QQ A1401       1.010   8.317  26.700  0.00  0.00    +0.270 C 
ATOM      3  N08 5QQ A1401       2.085   9.111  26.478  0.00  0.00    -0.078 NA
ATOM      4  C09 5QQ A1401       2.436  10.050  27.420  0.00  0.00    +0.513 C 
ATOM      5  N10 5QQ A1401       3.462  10.974  27.440  0.00  0.00    +0.201 NA
ATOM      6  N11 5QQ A1401       3.352  11.675  28.597  0.00  0.00    +0.153 NA
ATOM      7  C12 5QQ A1401       2.283  11.212  29.272  0.00  0.00    +0.439 C 
ATOM      8  N26 5QQ A1401       1.719  10.198  28.542  0.00  0.00    +0.013 N 
ATOM      9  N27 5QQ A1401       0.616   9.401  28.793  0.00  0.00    -0.079 NA
ENDROOT
BRANCH   1  15
ATOM     10  C28 5QQ A1401      -1.661   7.954  29.217  0.00  0.00    +0.004 A 
ATOM     11  F01 5QQ A1401      -4.120   5.300  28.922  0.00  0.00    -0.204 F 
ATOM     12  C02 5QQ A1401      -3.051   6.074  28.665  0.00  0.00    +0.140 A 
ATOM     13  C03 5QQ A1401      -2.237   5.787  27.584  0.00  0.00    +0.030 A 
ATOM     14  C04 5QQ A1401      -1.137   6.589  27.315  0.00  0.00    +0.004 A 
ATOM     15  C05 5QQ A1401      -0.848   7.667  28.133  0.00  0.00    +0.021 A 
ATOM     16  C29 5QQ A1401      -2.766   7.159  29.480  0.00  0.00    +0.030 A 
ENDBRANCH   1  15
BRANCH   7  17
ATOM     17  C13 5QQ A1401       1.780  11.680  30.616  0.00  0.00    +0.381 C 
ATOM     18  F14 5QQ A1401       2.717  12.455  31.164  0.00  0.00    -0.186 F 
ATOM     19  F15 5QQ A1401       1.546  10.617  31.396  0.00  0.00    -0.186 F 
BRANCH  17  24
ATOM     20  C17 5QQ A1401       0.586  13.763  29.884  0.00  0.00    +0.003 A 
ATOM     21  C21 5QQ A1401      -4.126  14.378  30.624  0.00  0.00    +0.099 A 
ATOM     22  C22 5QQ A1401      -4.235  13.124  31.233  0.00  0.00    +0.021 A 
ATOM     23  C24 5QQ A1401      -1.859  12.806  30.862  0.00  0.00    +0.018 A 
ATOM     24  C16 5QQ A1401       0.524  12.505  30.486  0.00  0.00    +0.050 A 
ATOM     25  C18 5QQ A1401      -0.559  14.547  29.767  0.00  0.00    +0.019 A 
ATOM     26  C19 5QQ A1401      -1.794  14.050  30.277  0.00  0.00    +0.081 A 
ATOM     27  N20 5QQ A1401      -2.933  14.817  30.161  0.00  0.00    -0.244 NA
ATOM     28  C23 5QQ A1401      -3.109  12.311  31.361  0.00  0.00    +0.003 A 
ATOM     29  C25 5QQ A1401      -0.683  12.013  30.980  0.00  0.00    +0.003 A 
ENDBRANCH  17  24
ENDBRANCH   7  17
TORSDOF 3
