@<TRIPOS>MOLECULE
5eob_lig.pdb
 29 33 0 0 0
SMALL
GASTEIGER

@<TRIPOS>ATOM
      1  C13        1.7800   11.6800   30.6160 C.3   1401  5QQ1401     0.3809
      2  C17        0.5860   13.7630   29.8840 C.ar  1401  5QQ1401     0.0031
      3  C21       -4.1260   14.3780   30.6240 C.ar  1401  5QQ1401     0.0988
      4  C22       -4.2350   13.1240   31.2330 C.ar  1401  5QQ1401     0.0207
      5  C24       -1.8590   12.8060   30.8620 C.ar  1401  5QQ1401     0.0176
      6  C28       -1.6610    7.9540   29.2170 C.ar  1401  5QQ1401     0.0037
      7  F01       -4.1200    5.3000   28.9220 F     1401  5QQ1401    -0.2042
      8  C02       -3.0510    6.0740   28.6650 C.ar  1401  5QQ1401     0.1401
      9  C03       -2.2370    5.7870   27.5840 C.ar  1401  5QQ1401     0.0297
     10  C04       -1.1370    6.5890   27.3150 C.ar  1401  5QQ1401     0.0037
     11  C05       -0.8480    7.6670   28.1330 C.ar  1401  5QQ1401     0.0207
     12  C06        0.2620    8.4730   27.8810 C.2   1401  5QQ1401     0.1432
     13  C07        1.0100    8.3170   26.7000 C.3   1401  5QQ1401     0.2696
     14  N08        2.0850    9.1110   26.4780 N.2   1401  5QQ1401    -0.0784
     15  C09        2.4360   10.0500   27.4200 C.cat 1401  5QQ1401     0.5134
     16  N10        3.4620   10.9740   27.4400 N.pl3 1401  5QQ1401     0.2010
     17  N11        3.3520   11.6750   28.5970 N.2   1401  5QQ1401     0.1533
     18  C12        2.2830   11.2120   29.2720 C.2   1401  5QQ1401     0.4390
     19  F14        2.7170   12.4550   31.1640 F     1401  5QQ1401    -0.1863
     20  F15        1.5460   10.6170   31.3960 F     1401  5QQ1401    -0.1863
     21  C16        0.5240   12.5050   30.4860 C.ar  1401  5QQ1401     0.0498
     22  C18       -0.5590   14.5470   29.7670 C.ar  1401  5QQ1401     0.0190
     23  C19       -1.7940   14.0500   30.2770 C.ar  1401  5QQ1401     0.0813
     24  N20       -2.9330   14.8170   30.1610 N.ar  1401  5QQ1401    -0.2438
     25  C23       -3.1090   12.3110   31.3610 C.ar  1401  5QQ1401     0.0031
     26  C25       -0.6830   12.0130   30.9800 C.ar  1401  5QQ1401     0.0030
     27  N26        1.7190   10.1980   28.5420 N.pl3 1401  5QQ1401     0.0135
     28  N27        0.6160    9.4010   28.7930 N.2   1401  5QQ1401    -0.0789
     29  C29       -2.7660    7.1590   29.4800 C.ar  1401  5QQ1401     0.0297
@<TRIPOS>BOND
     1     8     9   ar
     2     8    29   ar
     3     9    10   ar
     4    10    11   ar
     5    11    12    1
     6    12    13    1
     7    12    28    2
     8    13    14    1
     9    15    16    1
    10    15    27    1
    11    18    27    1
    12     1    18    1
    13     1    19    1
    14     1    20    1
    15     1    21    1
    16    21    26   ar
    17     2    21   ar
    18     2    22   ar
    19    22    23   ar
    20    23    24   ar
    21     3     4   ar
    22     3    24   ar
    23     4    25   ar
    24     5    23   ar
    25     5    25   ar
    26     5    26   ar
    27     6    11   ar
    28     6    29   ar
    29     7     8    1
    30    14    15    2
    31    16    17    1
    32    17    18    2
    33    27    28    1
