@<TRIPOS>MOLECULE
5uep_lig.pdb
 16 17 0 0 0
SMALL
GASTEIGER

@<TRIPOS>ATOM
      1  C4       -12.7680   11.1580    0.1120 C.2   501  88P501      0.0315
      2  C5       -11.6150   11.9690   -0.1250 C.2   501  88P501      0.1706
      3  C6       -11.8120   13.4330    0.1910 C.3   501  88P501      0.0689
      4  C7       -14.8300   10.5400    0.8390 C.2   501  88P501      0.1376
      5  C8       -12.9700    9.8600   -0.2890 C.2   501  88P501      0.0583
      6  C10      -17.9040   11.3970    2.5590 C.3   501  88P501      0.2089
      7  C3       -13.9250   11.5900    0.8220 C.3   501  88P501      0.0730
      8  C9       -16.1350   10.3690    1.4290 C.2   501  88P501      0.3553
      9  C2       -14.0090   12.9590    1.3970 C.3   501  88P501      0.0111
     10  C1       -12.6200   13.5870    1.4800 C.3   501  88P501      0.0088
     11  C12      -12.1150    8.9310   -1.0460 C.3   501  88P501      0.0518
     12  C11      -18.0040   11.8280    4.0000 C.3   501  88P501      0.0513
     13  N13      -14.2190    9.5170    0.1590 N.2   501  88P501     -0.2474
     14  O14      -10.5490   11.5400   -0.5400 O.2   501  88P501     -0.2916
     15  O16      -16.7850    9.3320    1.3370 O.2   501  88P501     -0.2435
     16  O15      -16.5370   11.4680    2.1430 O.3   501  88P501     -0.4446
@<TRIPOS>BOND
     1     6    12    1
     2     6    16    1
     3     9    10    1
     4     7     9    1
     5     1     2    1
     6     1     5    2
     7     1     7    1
     8     2     3    1
     9     2    14    2
    10     3    10    1
    11     4     7    1
    12     4     8    1
    13     4    13    2
    14     5    11    1
    15     5    13    1
    16     8    15    2
    17     8    16    1
