REMARK  Name = 5ues_lig.pdb
REMARK  4 active torsions:
REMARK  status: ('A' for Active; 'I' for Inactive)
REMARK    1  A    between atoms: C10_6  and  C15_8
REMARK    2  A    between atoms: C13_7  and  O22_22
REMARK    3  A    between atoms: C17_9  and  C11_14
REMARK    4  A    between atoms: C12_15  and  O22_22
REMARK                            x       y       z     vdW  Elec       q    Type
REMARK                         _______ _______ _______ _____ _____    ______ ____
ROOT
ATOM      1  C4  87S A 501     -17.798  11.167   3.264  0.00  0.00    +0.037 A 
ATOM      2  C10 87S A 501     -16.099  10.670   1.615  0.00  0.00    +0.052 A 
ATOM      3  C13 87S A 501     -16.510  11.314   2.776  0.00  0.00    +0.147 A 
ATOM      4  C1  87S A 501     -18.277   9.653   1.478  0.00  0.00    +0.000 A 
ATOM      5  C2  87S A 501     -18.686  10.337   2.609  0.00  0.00    +0.003 A 
ATOM      6  C3  87S A 501     -16.996   9.817   0.990  0.00  0.00    +0.004 A 
ENDROOT
BRANCH   2   7
ATOM      7  C15 87S A 501     -14.760  10.819   1.062  0.00  0.00    +0.084 A 
ATOM      8  C9  87S A 501     -13.796  11.799   1.202  0.00  0.00    +0.025 A 
ATOM      9  C11 87S A 501     -12.639  11.420   0.470  0.00  0.00    +0.072 A 
ATOM     10  C16 87S A 501     -12.926  10.189  -0.103  0.00  0.00    +0.064 A 
ATOM     11  C18 87S A 501     -12.145   9.269  -0.968  0.00  0.00    +0.052 C 
ATOM     12  N19 87S A 501     -14.202   9.856   0.254  0.00  0.00    -0.249 NA
BRANCH   9  13
ATOM     13  C17 87S A 501     -11.388  12.128   0.355  0.00  0.00    +0.285 C 
ATOM     14  N20 87S A 501     -11.334  13.278   1.122  0.00  0.00    -0.084 NA
ATOM     15  O21 87S A 501     -10.468  11.752  -0.358  0.00  0.00    -0.267 OA
ENDBRANCH   9  13
ENDBRANCH   2   7
BRANCH   3  16
ATOM     16  O22 87S A 501     -15.660  12.192   3.437  0.00  0.00    -0.453 OA
BRANCH  16  21
ATOM     17  C5  87S A 501     -14.739  10.303   4.658  0.00  0.00    +0.038 A 
ATOM     18  C6  87S A 501     -14.126  12.571   5.177  0.00  0.00    +0.038 A 
ATOM     19  C7  87S A 501     -13.916   9.833   5.655  0.00  0.00    +0.015 A 
ATOM     20  C8  87S A 501     -13.300  12.097   6.175  0.00  0.00    +0.015 A 
ATOM     21  C12 87S A 501     -14.852  11.663   4.430  0.00  0.00    +0.145 A 
ATOM     22  C14 87S A 501     -13.207  10.739   6.406  0.00  0.00    +0.058 A 
ATOM     23 CL1  87S A 501     -12.186  10.129   7.653  0.00  0.00    -0.082 Cl
ENDBRANCH  16  21
ENDBRANCH   3  16
TORSDOF 4
