@<TRIPOS>MOLECULE
5ues_lig.pdb
 23 25 0 0 0
SMALL
GASTEIGER

@<TRIPOS>ATOM
      1  C4       -17.7980   11.1670    3.2640 C.ar  501  87S501      0.0375
      2  C5       -14.7390   10.3030    4.6580 C.ar  501  87S501      0.0384
      3  C6       -14.1260   12.5710    5.1770 C.ar  501  87S501      0.0384
      4  C7       -13.9160    9.8330    5.6550 C.ar  501  87S501      0.0145
      5  C8       -13.3000   12.0970    6.1750 C.ar  501  87S501      0.0145
      6  C10      -16.0990   10.6700    1.6150 C.ar  501  87S501      0.0522
      7  C13      -16.5100   11.3140    2.7760 C.ar  501  87S501      0.1467
      8  C15      -14.7600   10.8190    1.0620 C.ar  501  87S501      0.0840
      9  C17      -11.3880   12.1280    0.3550 C.2   501  87S501      0.2854
     10  C1       -18.2770    9.6530    1.4780 C.ar  501  87S501      0.0002
     11  C2       -18.6860   10.3370    2.6090 C.ar  501  87S501      0.0031
     12  C3       -16.9960    9.8170    0.9900 C.ar  501  87S501      0.0045
     13  C9       -13.7960   11.7990    1.2020 C.ar  501  87S501      0.0250
     14  C11      -12.6390   11.4200    0.4700 C.ar  501  87S501      0.0717
     15  C12      -14.8520   11.6630    4.4300 C.ar  501  87S501      0.1454
     16  C14      -13.2070   10.7390    6.4060 C.ar  501  87S501      0.0579
     17  C16      -12.9260   10.1890   -0.1030 C.ar  501  87S501      0.0638
     18  C18      -12.1450    9.2690   -0.9680 C.3   501  87S501      0.0522
     19  N19      -14.2020    9.8560    0.2540 N.ar  501  87S501     -0.2494
     20  N20      -11.3340   13.2780    1.1220 N.am  501  87S501     -0.0837
     21  O21      -10.4680   11.7520   -0.3580 O.2   501  87S501     -0.2666
     22  O22      -15.6600   12.1920    3.4370 O.3   501  87S501     -0.4534
     23 CL1       -12.1860   10.1290    7.6530 Cl    501  87S501     -0.0822
@<TRIPOS>BOND
     1    10    11   ar
     2    10    12   ar
     3     6     7   ar
     4     6     8    1
     5     6    12   ar
     6    14    17   ar
     7    15    22    1
     8     7    22    1
     9    16    23    1
    10     8    13   ar
    11     8    19   ar
    12    17    18    1
    13    17    19   ar
    14     9    14    1
    15     9    20   am
    16     9    21    2
    17     1     7   ar
    18     1    11   ar
    19     2     4   ar
    20     2    15   ar
    21     3     5   ar
    22     3    15   ar
    23     4    16   ar
    24     5    16   ar
    25    13    14   ar
