@<TRIPOS>MOLECULE
5uet_lig.pdb
 15 16 0 0 0
SMALL
GASTEIGER

@<TRIPOS>ATOM
      1  C4        16.7540   11.6560   -2.0910 C.ar  501  87V501     -0.0021
      2  C5        17.1260    9.6900   -0.7900 C.ar  501  87V501     -0.0021
      3  C6        13.9720   11.7720   -0.8730 C.2   501  87V501      0.0079
      4  C7        16.2880   10.7150   -1.1910 C.ar  501  87V501      0.0039
      5  C8        12.7820   11.3750   -0.2110 C.2   501  87V501      0.0677
      6  C10       13.0450   10.1410    0.3530 C.2   501  87V501      0.0589
      7  C1        18.8710   10.5530   -2.1750 C.ar  501  87V501     -0.0000
      8  C2        18.0430   11.5800   -2.5790 C.ar  501  87V501     -0.0003
      9  C3        18.4130    9.6060   -1.2820 C.ar  501  87V501     -0.0003
     10  C9        14.9300   10.7980   -0.7010 C.3   501  87V501      0.1472
     11  C11       11.5400   12.1060   -0.1580 C.2   501  87V501      0.2851
     12  C12       12.2350    9.2050    1.1560 C.3   501  87V501      0.0518
     13  N13       14.3370    9.8230    0.0490 N.2   501  87V501     -0.2676
     14  N14       11.5050   13.1350   -1.0620 N.am  501  87V501     -0.0837
     15  O15       10.6250   11.8340    0.6050 O.2   501  87V501     -0.2666
@<TRIPOS>BOND
     1     7     8   ar
     2     7     9   ar
     3     6    12    1
     4     6    13    2
     5    11    14   am
     6    11    15    2
     7     1     4   ar
     8     1     8   ar
     9     2     4   ar
    10     2     9   ar
    11     3     5    2
    12     3    10    1
    13     4    10    1
    14     5     6    1
    15     5    11    1
    16    10    13    1
