@<TRIPOS>MOLECULE
5uev_lig.pdb
 16 17 0 0 0
SMALL
GASTEIGER

@<TRIPOS>ATOM
      1  C4        18.3020  -10.1500    0.9090 C.ar  501  88Y501      0.0178
      2  C5        13.8150  -12.0850    0.3240 C.2   501  88Y501      0.0062
      3  C6        16.0710  -10.9970    0.8900 C.ar  501  88Y501      0.0207
      4  C7        12.5890  -11.5890   -0.1910 C.2   501  88Y501      0.0458
      5  C8        17.0710  -10.2520    0.2780 C.ar  501  88Y501      0.0872
      6  C10       12.7830  -10.2420   -0.4330 C.2   501  88Y501      0.0572
      7  C13       11.4670  -13.8310   -0.2890 C.3   501  88Y501      0.0773
      8  C1        17.5490  -11.5350    2.7170 C.ar  501  88Y501     -0.0002
      9  C2        18.5450  -10.7850    2.1160 C.ar  501  88Y501      0.0014
     10  C3        16.3120  -11.6200    2.1070 C.ar  501  88Y501     -0.0007
     11  C9        14.7310  -11.0580    0.3570 C.3   501  88Y501      0.1485
     12  C11       11.3620  -12.3330   -0.3530 C.2   501  88Y501      0.1744
     13  C12       11.9090   -9.1780   -0.9570 C.3   501  88Y501      0.0517
     14  N14       14.0800   -9.9560   -0.1200 N.2   501  88Y501     -0.2676
     15  N15       16.8680   -9.6050   -0.9590 N.pl3 501  88Y501     -0.1283
     16  O16       10.2860  -11.7990   -0.5520 O.2   501  88Y501     -0.2913
@<TRIPOS>BOND
     1     8     9   ar
     2     8    10   ar
     3     6    13    1
     4     6    14    2
     5    12    16    2
     6     7    12    1
     7     1     5   ar
     8     1     9   ar
     9     2     4    2
    10     2    11    1
    11     3     5   ar
    12     3    10   ar
    13     3    11    1
    14     4     6    1
    15     4    12    1
    16     5    15    1
    17    11    14    1
