REMARK  Name = 5uev_lig.pdb
REMARK  2 active torsions:
REMARK  status: ('A' for Active; 'I' for Inactive)
REMARK    1  A    between atoms: C6_3  and  C9_11
REMARK    2  A    between atoms: C7_4  and  C11_12
REMARK                            x       y       z     vdW  Elec       q    Type
REMARK                         _______ _______ _______ _____ _____    ______ ____
ROOT
ATOM      1  C5  88Y A 501      13.815 -12.085   0.324  0.00  0.00    +0.006 C 
ATOM      2  C7  88Y A 501      12.589 -11.589  -0.191  0.00  0.00    +0.046 C 
ATOM      3  C10 88Y A 501      12.783 -10.242  -0.433  0.00  0.00    +0.057 C 
ATOM      4  C9  88Y A 501      14.731 -11.058   0.357  0.00  0.00    +0.148 C 
ATOM      5  C12 88Y A 501      11.909  -9.178  -0.957  0.00  0.00    +0.052 C 
ATOM      6  N14 88Y A 501      14.080  -9.956  -0.120  0.00  0.00    -0.268 NA
ENDROOT
BRANCH   4   8
ATOM      7  C4  88Y A 501      18.302 -10.150   0.909  0.00  0.00    +0.018 A 
ATOM      8  C6  88Y A 501      16.071 -10.997   0.890  0.00  0.00    +0.021 A 
ATOM      9  C8  88Y A 501      17.071 -10.252   0.278  0.00  0.00    +0.087 A 
ATOM     10  C1  88Y A 501      17.549 -11.535   2.717  0.00  0.00    -0.000 A 
ATOM     11  C2  88Y A 501      18.545 -10.785   2.116  0.00  0.00    +0.001 A 
ATOM     12  C3  88Y A 501      16.312 -11.620   2.107  0.00  0.00    -0.001 A 
ATOM     13  N15 88Y A 501      16.868  -9.605  -0.959  0.00  0.00    -0.128 NA
ENDBRANCH   4   8
BRANCH   2  15
ATOM     14  C13 88Y A 501      11.467 -13.831  -0.289  0.00  0.00    +0.077 C 
ATOM     15  C11 88Y A 501      11.362 -12.333  -0.353  0.00  0.00    +0.174 C 
ATOM     16  O16 88Y A 501      10.286 -11.799  -0.552  0.00  0.00    -0.291 OA
ENDBRANCH   2  15
TORSDOF 2
