@<TRIPOS>MOLECULE
5uez_lig.pdb
 23 25 0 0 0
SMALL
GASTEIGER

@<TRIPOS>ATOM
      1  C4        13.3430   12.4340   -7.2470 C.ar  501  89G501      0.0031
      2  C5        17.3580   12.3150   -3.3740 C.ar  501  89G501      0.0031
      3  C6        16.0130   12.5990   -1.4030 C.ar  501  89G501      0.0047
      4  C7        13.2940    9.9820   -5.9760 C.ar  501  89G501      0.0375
      5  C8        13.6970   12.3510   -5.9160 C.ar  501  89G501      0.0375
      6  C10       14.9640   12.0020   -2.0720 C.ar  501  89G501      0.0569
      7  C13       11.4850   12.6860   -0.8930 C.ar  501  89G501      0.1006
      8  C15       12.6270   12.8060   -1.6080 C.ar  501  89G501      0.1628
      9  C17       12.2900    9.4930    0.9620 C.3   501  89G501      0.1571
     10  C1        12.9510   11.3000   -7.9310 C.ar  501  89G501      0.0002
     11  C2        17.2140   12.7670   -2.0750 C.ar  501  89G501      0.0003
     12  C3        12.9130   10.0740   -7.2970 C.ar  501  89G501      0.0031
     13  C9        16.3140   11.7000   -4.0370 C.ar  501  89G501      0.0375
     14  C11       13.6890   11.1160   -5.2940 C.ar  501  89G501      0.1453
     15  C12       15.1030   11.5590   -3.3740 C.ar  501  89G501      0.1468
     16  C14       13.6810   11.8090   -1.3530 C.ar  501  89G501      0.1378
     17  C16       11.3320   11.5290    0.0410 C.ar  501  89G501      0.2796
     18  C18       11.7330   14.5120   -2.8750 C.3   501  89G501      0.2525
     19  N19       13.5680   10.7990   -0.5550 N.ar  501  89G501     -0.1636
     20  N20       12.3860   10.6510    0.0950 N.ar  501  89G501     -0.2144
     21  O21       10.2940   11.3900    0.6930 O.2   501  89G501     -0.2654
     22  O22       14.0020   10.9420   -3.9550 O.3   501  89G501     -0.4534
     23  O23       12.9280   13.8120   -2.5250 O.3   501  89G501     -0.4697
@<TRIPOS>BOND
     1    10    12   ar
     2     6    15   ar
     3     6    16    1
     4    14    22    1
     5    15    22    1
     6     7     8   ar
     7     7    17   ar
     8    16    19   ar
     9     8    16   ar
    10     8    23    1
    11    17    20   ar
    12    17    21    2
    13     9    20    1
    14    18    23    1
    15     1     5   ar
    16     1    10   ar
    17     2    11   ar
    18     2    13   ar
    19     3     6   ar
    20     3    11   ar
    21     4    12   ar
    22     4    14   ar
    23     5    14   ar
    24    13    15   ar
    25    19    20   ar
