REMARK  Name = 5uez_lig.pdb
REMARK  4 active torsions:
REMARK  status: ('A' for Active; 'I' for Inactive)
REMARK    1  A    between atoms: C10_6  and  C14_16
REMARK    2  A    between atoms: C15_8  and  O23_23
REMARK    3  A    between atoms: C11_14  and  O22_22
REMARK    4  A    between atoms: C12_15  and  O22_22
REMARK                            x       y       z     vdW  Elec       q    Type
REMARK                         _______ _______ _______ _____ _____    ______ ____
ROOT
ATOM      1  C5  89G A 501      17.358  12.315  -3.374  0.00  0.00    +0.003 A 
ATOM      2  C6  89G A 501      16.013  12.599  -1.403  0.00  0.00    +0.005 A 
ATOM      3  C10 89G A 501      14.964  12.002  -2.072  0.00  0.00    +0.057 A 
ATOM      4  C2  89G A 501      17.214  12.767  -2.075  0.00  0.00    +0.000 A 
ATOM      5  C9  89G A 501      16.314  11.700  -4.037  0.00  0.00    +0.037 A 
ATOM      6  C12 89G A 501      15.103  11.559  -3.374  0.00  0.00    +0.147 A 
ENDROOT
BRANCH   3  10
ATOM      7  C13 89G A 501      11.485  12.686  -0.893  0.00  0.00    +0.101 A 
ATOM      8  C15 89G A 501      12.627  12.806  -1.608  0.00  0.00    +0.163 A 
ATOM      9  C17 89G A 501      12.290   9.493   0.962  0.00  0.00    +0.157 C 
ATOM     10  C14 89G A 501      13.681  11.809  -1.353  0.00  0.00    +0.138 A 
ATOM     11  C16 89G A 501      11.332  11.529   0.041  0.00  0.00    +0.280 A 
ATOM     12  N19 89G A 501      13.568  10.799  -0.555  0.00  0.00    -0.164 NA
ATOM     13  N20 89G A 501      12.386  10.651   0.095  0.00  0.00    -0.214 N 
ATOM     14  O21 89G A 501      10.294  11.390   0.693  0.00  0.00    -0.265 OA
BRANCH   8  16
ATOM     15  C18 89G A 501      11.733  14.512  -2.875  0.00  0.00    +0.253 C 
ATOM     16  O23 89G A 501      12.928  13.812  -2.525  0.00  0.00    -0.470 OA
ENDBRANCH   8  16
ENDBRANCH   3  10
BRANCH   6  17
ATOM     17  O22 89G A 501      14.002  10.942  -3.955  0.00  0.00    -0.453 OA
BRANCH  17  23
ATOM     18  C4  89G A 501      13.343  12.434  -7.247  0.00  0.00    +0.003 A 
ATOM     19  C7  89G A 501      13.294   9.982  -5.976  0.00  0.00    +0.037 A 
ATOM     20  C8  89G A 501      13.697  12.351  -5.916  0.00  0.00    +0.037 A 
ATOM     21  C1  89G A 501      12.951  11.300  -7.931  0.00  0.00    +0.000 A 
ATOM     22  C3  89G A 501      12.913  10.074  -7.297  0.00  0.00    +0.003 A 
ATOM     23  C11 89G A 501      13.689  11.116  -5.294  0.00  0.00    +0.145 A 
ENDBRANCH  17  23
ENDBRANCH   6  17
TORSDOF 4
