REMARK  Name = 5uf0_lig.pdb
REMARK  2 active torsions:
REMARK  status: ('A' for Active; 'I' for Inactive)
REMARK    1  A    between atoms: C6_3  and  C8_5
REMARK    2  A    between atoms: C9_10  and  N15_15
REMARK                            x       y       z     vdW  Elec       q    Type
REMARK                         _______ _______ _______ _____ _____    ______ ____
ROOT
ATOM      1  C7  89J A 501     -11.461  12.705   0.841  0.00  0.00    +0.080 A 
ATOM      2  C8  89J A 501     -13.709  11.932   1.241  0.00  0.00    +0.116 A 
ATOM      3  C10 89J A 501     -11.299  11.500   0.001  0.00  0.00    +0.278 A 
ATOM      4  C9  89J A 501     -12.623  12.904   1.491  0.00  0.00    +0.089 A 
ATOM      5  C11 89J A 501     -12.247   9.405  -0.768  0.00  0.00    +0.157 C 
ATOM      6  N13 89J A 501     -13.577  10.877   0.518  0.00  0.00    -0.166 NA
ATOM      7  N14 89J A 501     -12.358  10.637  -0.021  0.00  0.00    -0.214 N 
ATOM      8  O16 89J A 501     -10.218  11.295  -0.556  0.00  0.00    -0.266 OA
ENDROOT
BRANCH   2  11
ATOM      9  C4  89J A 501     -15.634  11.361   2.674  0.00  0.00    +0.002 A 
ATOM     10  C5  89J A 501     -15.786  13.259   1.194  0.00  0.00    +0.002 A 
ATOM     11  C6  89J A 501     -15.071  12.198   1.731  0.00  0.00    +0.021 A 
ATOM     12  C1  89J A 501     -17.641  12.671   2.578  0.00  0.00    +0.000 A 
ATOM     13  C2  89J A 501     -16.928  11.609   3.106  0.00  0.00    +0.000 A 
ATOM     14  C3  89J A 501     -17.080  13.498   1.625  0.00  0.00    +0.000 A 
ENDBRANCH   2  11
BRANCH   4  16
ATOM     15  C12 89J A 501     -11.829  14.863   2.709  0.00  0.00    +0.136 C 
ATOM     16  N15 89J A 501     -12.892  13.965   2.332  0.00  0.00    -0.234 NA
ENDBRANCH   4  16
TORSDOF 2
