@<TRIPOS>MOLECULE
5uf0_lig.pdb
 16 17 0 0 0
SMALL
GASTEIGER

@<TRIPOS>ATOM
      1  C4       -15.6340   11.3610    2.6740 C.ar  501  89J501      0.0016
      2  C5       -15.7860   13.2590    1.1940 C.ar  501  89J501      0.0016
      3  C6       -15.0710   12.1980    1.7310 C.ar  501  89J501      0.0206
      4  C7       -11.4610   12.7050    0.8410 C.ar  501  89J501      0.0798
      5  C8       -13.7090   11.9320    1.2410 C.ar  501  89J501      0.1159
      6  C10      -11.2990   11.5000    0.0010 C.ar  501  89J501      0.2778
      7  C1       -17.6410   12.6710    2.5780 C.ar  501  89J501      0.0000
      8  C2       -16.9280   11.6090    3.1060 C.ar  501  89J501      0.0000
      9  C3       -17.0800   13.4980    1.6250 C.ar  501  89J501      0.0000
     10  C9       -12.6230   12.9040    1.4910 C.ar  501  89J501      0.0894
     11  C11      -12.2470    9.4050   -0.7680 C.3   501  89J501      0.1571
     12  C12      -11.8290   14.8630    2.7090 C.3   501  89J501      0.1355
     13  N13      -13.5770   10.8770    0.5180 N.ar  501  89J501     -0.1655
     14  N14      -12.3580   10.6370   -0.0210 N.ar  501  89J501     -0.2145
     15  N15      -12.8920   13.9650    2.3320 N.pl3 501  89J501     -0.2340
     16  O16      -10.2180   11.2950   -0.5560 O.2   501  89J501     -0.2655
@<TRIPOS>BOND
     1     7     8   ar
     2     7     9   ar
     3     6    14   ar
     4     6    16    2
     5    11    14    1
     6    12    15    1
     7     1     3   ar
     8     1     8   ar
     9     2     3   ar
    10     2     9   ar
    11     3     5    1
    12     4     6   ar
    13     4    10   ar
    14     5    10   ar
    15     5    13   ar
    16    10    15    1
    17    13    14   ar
