@<TRIPOS>MOLECULE
5uvs_lig.pdb
 50 53 0 0 0
SMALL
GASTEIGER

@<TRIPOS>ATOM
      1  C4        16.2880  -10.8910    0.8570 C.ar  501  8O1501     -0.0273
      2  C5        12.1910  -14.1170    2.4560 C.ar  501  8O1501      0.0029
      3  C6        13.1140  -12.2700    1.6280 C.ar  501  8O1501      0.0141
      4  C7        15.2810  -10.9380    1.8080 C.ar  501  8O1501      0.0068
      5  C8        15.5970  -10.7860    3.1570 C.ar  501  8O1501      0.0351
      6  C10       11.8660  -12.3960    1.0600 C.ar  501  8O1501      0.1125
      7  C13       11.2880  -11.4790    0.1010 C.ar  501  8O1501      0.2751
      8  C15       12.7670   -9.7470    6.6370 C.3   501  8O1501     -0.0485
      9  C17       18.7850   -7.8940   -0.3200 C.3   501  8O1501     -0.0453
     10  C20       18.4790   -9.2230   -0.9880 C.3   501  8O1501      0.0681
     11  C1        16.9240  -10.6050    3.5090 C.ar  501  8O1501     -0.0385
     12  C2        17.9270  -10.5650    2.5690 C.ar  501  8O1501     -0.0351
     13  C3        13.3240  -13.3500    2.5190 C.ar  501  8O1501     -0.0359
     14  C9        17.6000  -10.6920    1.2410 C.ar  501  8O1501      0.0889
     15  C11       13.3800  -10.2960    0.4210 C.ar  501  8O1501      0.0161
     16  C12       13.9210  -11.1620    1.2880 C.ar  501  8O1501      0.0095
     17  C14       13.6730  -10.1910    7.7380 C.3   501  8O1501     -0.0485
     18  C16       13.7270  -10.8720    6.4040 C.3   501  8O1501     -0.0255
     19  C18       11.6880   -9.3770   -1.0560 C.3   501  8O1501      0.0148
     20  C19       14.9310  -10.6420    5.5680 C.3   501  8O1501      0.0120
     21  N21       11.3230  -13.5430    1.5660 N.ar  501  8O1501     -0.3564
     22  N22       12.1270  -10.4230   -0.1520 N.ar  501  8O1501     -0.3160
     23  N23       14.6020  -10.8130    4.1660 N.pl3 501  8O1501     -0.3431
     24  O24       10.1860  -11.6320   -0.4240 O.2   501  8O1501     -0.2654
     25  O25       20.1490  -10.3080    0.6870 O.2   501  8O1501     -0.1694
     26  O26       18.7390  -11.8610   -0.7450 O.2   501  8O1501     -0.1694
     27  S27       18.9050  -10.6370    0.0220 S.O2  501  8O1501     -0.0033
     28  H4        16.0500  -11.0060   -0.1950 H     501  8O1501      0.0643
     29  H5        11.9340  -15.0380    2.9550 H     501  8O1501      0.0807
     30 H152       12.9870   -8.8140    6.1390 H     501  8O1501      0.0269
     31 H151       11.7170   -9.9800    6.7420 H     501  8O1501      0.0269
     32 H173       18.4870   -7.0670   -0.9680 H     501  8O1501      0.0245
     33 H172       19.8540   -7.7960   -0.1110 H     501  8O1501      0.0245
     34 H171       18.2390   -7.8070    0.6220 H     501  8O1501      0.0245
     35  H1        17.2170  -10.4850    4.5400 H     501  8O1501      0.0637
     36  H2        18.9520  -10.4130    2.8850 H     501  8O1501      0.0637
     37  H3        14.1960  -13.5410    3.1240 H     501  8O1501      0.0639
     38  H11       13.9370   -9.4270    0.1080 H     501  8O1501      0.0816
     39 H142       13.2310  -10.7350    8.5630 H     501  8O1501      0.0269
     40 H141       14.4920   -9.5360    8.0080 H     501  8O1501      0.0269
     41  H16       13.3310  -11.8740    6.3120 H     501  8O1501      0.0316
     42 H183       10.6000   -9.3580   -1.1390 H     501  8O1501      0.0457
     43 H181       12.1270   -9.5270   -2.0410 H     501  8O1501      0.0457
     44 H182       12.0210   -8.4180   -0.6510 H     501  8O1501      0.0457
     45 H191       15.6910  -11.3680    5.8670 H     501  8O1501      0.0464
     46 H192       15.3160   -9.6330    5.7320 H     501  8O1501      0.0464
     47  H21       10.4170  -13.9160    1.3210 H     501  8O1501      0.1655
     48  H23       13.6260  -10.9180    3.9080 H     501  8O1501      0.1461
     49 H201       19.0590   -9.3130   -1.9090 H     501  8O1501      0.0501
     50 H202       17.4160   -9.2980   -1.2300 H     501  8O1501      0.0501
@<TRIPOS>BOND
     1    11    12   ar
     2    11    35    1
     3     6     7   ar
     4     6    21   ar
     5    15    16   ar
     6    15    22   ar
     7    15    38    1
     8     7    22   ar
     9     7    24    2
    10    17    18    1
    11    17    39    1
    12    17    40    1
    13     8    17    1
    14     8    18    1
    15     8    30    1
    16     8    31    1
    17    18    20    1
    18    18    41    1
    19     9    10    1
    20     9    32    1
    21     9    33    1
    22     9    34    1
    23    19    22    1
    24    19    42    1
    25    19    43    1
    26    19    44    1
    27    20    23    1
    28    20    45    1
    29    20    46    1
    30    12    14   ar
    31    12    36    1
    32    10    27    1
    33    10    49    1
    34    10    50    1
    35    13    37    1
    36     1     4   ar
    37     1    14   ar
    38     1    28    1
    39     2    13   ar
    40     2    21   ar
    41     2    29    1
    42     3     6   ar
    43     3    13   ar
    44     3    16   ar
    45     4     5   ar
    46     4    16    1
    47     5    11   ar
    48     5    23    1
    49    14    27    1
    50    21    47    1
    51    23    48    1
    52    25    27    2
    53    26    27    2
