REMARK  Name = 5uvy_lig.pdb
REMARK  3 active torsions:
REMARK  status: ('A' for Active; 'I' for Inactive)
REMARK    1  A    between atoms: C15_8  and  O24_24
REMARK    2  A    between atoms: C12_16  and  C18_19
REMARK    3  A    between atoms: C14_17  and  O24_24
REMARK                            x       y       z     vdW  Elec       q    Type
REMARK                         _______ _______ _______ _____ _____    ______ ____
ROOT
ATOM      1  C5  8NJ A 501      11.360  10.662  19.777  0.00  0.00    +0.003 A 
ATOM      2  C6  8NJ A 501      12.662  10.848  17.782  0.00  0.00    +0.003 A 
ATOM      3  C15 8NJ A 501      13.740  10.829  19.922  0.00  0.00    +0.145 A 
ATOM      4  C2  8NJ A 501      11.434  10.727  18.400  0.00  0.00    +0.000 A 
ATOM      5  C9  8NJ A 501      12.510  10.708  20.538  0.00  0.00    +0.037 A 
ATOM      6  C12 8NJ A 501      13.816  10.896  18.540  0.00  0.00    +0.036 A 
ENDROOT
BRANCH   6  13
ATOM      7  C10 8NJ A 501      15.718  13.400  18.824  0.00  0.00    +0.002 C 
ATOM      8  C13 8NJ A 501      15.906  12.227  18.051  0.00  0.00    +0.021 A 
ATOM      9  C17 8NJ A 501      15.564  10.106  17.078  0.00  0.00    +0.079 A 
ATOM     10  C20 8NJ A 501      17.141   9.095  15.582  0.00  0.00    +0.134 C 
ATOM     11  C11 8NJ A 501      16.838  14.175  18.615  0.00  0.00    +0.152 C 
ATOM     12  C16 8NJ A 501      17.106  12.304  17.402  0.00  0.00    +0.132 A 
ATOM     13  C18 8NJ A 501      15.104  11.077  17.882  0.00  0.00    +0.022 A 
ATOM     14  C19 8NJ A 501      17.633  11.298  16.541  0.00  0.00    +0.278 A 
ATOM     15  N21 8NJ A 501      17.657  13.503  17.751  0.00  0.00    -0.261 NA
ATOM     16  N22 8NJ A 501      16.778  10.204  16.422  0.00  0.00    -0.291 N 
ATOM     17  O23 8NJ A 501      18.717  11.421  15.995  0.00  0.00    -0.265 OA
ENDBRANCH   6  13
BRANCH   3  18
ATOM     18  O24 8NJ A 501      14.940  10.895  20.631  0.00  0.00    -0.454 OA
BRANCH  18  24
ATOM     19  C4  8NJ A 501      15.282   9.393  23.927  0.00  0.00    +0.003 A 
ATOM     20  C7  8NJ A 501      14.797  11.879  22.801  0.00  0.00    +0.037 A 
ATOM     21  C8  8NJ A 501      15.217   9.522  22.555  0.00  0.00    +0.037 A 
ATOM     22  C1  8NJ A 501      15.090  10.500  24.731  0.00  0.00    +0.000 A 
ATOM     23  C3  8NJ A 501      14.846  11.740  24.173  0.00  0.00    +0.003 A 
ATOM     24  C14 8NJ A 501      14.961  10.762  22.007  0.00  0.00    +0.145 A 
ENDBRANCH  18  24
ENDBRANCH   3  18
TORSDOF 3
