@<TRIPOS>MOLECULE
5uvy_lig.pdb
 24 27 0 0 0
SMALL
GASTEIGER

@<TRIPOS>ATOM
      1  C4        15.2820    9.3930   23.9270 C.ar  501  8NJ501      0.0031
      2  C5        11.3600   10.6620   19.7770 C.ar  501  8NJ501      0.0031
      3  C6        12.6620   10.8480   17.7820 C.ar  501  8NJ501      0.0031
      4  C7        14.7970   11.8790   22.8010 C.ar  501  8NJ501      0.0375
      5  C8        15.2170    9.5220   22.5550 C.ar  501  8NJ501      0.0375
      6  C10       15.7180   13.4000   18.8240 C.2   501  8NJ501      0.0017
      7  C13       15.9060   12.2270   18.0510 C.ar  501  8NJ501      0.0211
      8  C15       13.7400   10.8290   19.9220 C.ar  501  8NJ501      0.1452
      9  C17       15.5640   10.1060   17.0780 C.ar  501  8NJ501      0.0785
     10  C20       17.1410    9.0950   15.5820 C.3   501  8NJ501      0.1336
     11  C1        15.0900   10.5000   24.7310 C.ar  501  8NJ501      0.0002
     12  C2        11.4340   10.7270   18.4000 C.ar  501  8NJ501      0.0002
     13  C3        14.8460   11.7400   24.1730 C.ar  501  8NJ501      0.0031
     14  C9        12.5100   10.7080   20.5380 C.ar  501  8NJ501      0.0375
     15  C11       16.8380   14.1750   18.6150 C.3   501  8NJ501      0.1518
     16  C12       13.8160   10.8960   18.5400 C.ar  501  8NJ501      0.0360
     17  C14       14.9610   10.7620   22.0070 C.ar  501  8NJ501      0.1453
     18  C16       17.1060   12.3040   17.4020 C.ar  501  8NJ501      0.1321
     19  C18       15.1040   11.0770   17.8820 C.ar  501  8NJ501      0.0216
     20  C19       17.6330   11.2980   16.5410 C.ar  501  8NJ501      0.2782
     21  N21       17.6570   13.5030   17.7510 N.2   501  8NJ501     -0.2608
     22  N22       16.7780   10.2040   16.4220 N.ar  501  8NJ501     -0.2909
     23  O23       18.7170   11.4210   15.9950 O.2   501  8NJ501     -0.2653
     24  O24       14.9400   10.8950   20.6310 O.3   501  8NJ501     -0.4535
@<TRIPOS>BOND
     1    11    13   ar
     2     6     7    2
     3     6    15    1
     4    15    21    1
     5    16    19    1
     6     7    18   ar
     7     7    19   ar
     8    17    24    1
     9     8    14   ar
    10     8    16   ar
    11     8    24    1
    12    18    20   ar
    13    18    21    2
    14     9    19   ar
    15     9    22   ar
    16    20    22   ar
    17    20    23    2
    18    10    22    1
    19     1     5   ar
    20     1    11   ar
    21     2    12   ar
    22     2    14   ar
    23     3    12   ar
    24     3    16   ar
    25     4    13   ar
    26     4    17   ar
    27     5    17   ar
