@<TRIPOS>MOLECULE
5uvz_lig.pdb
 21 23 0 0 0
SMALL
GASTEIGER

@<TRIPOS>ATOM
      1  C4        12.6970  -11.3640    6.8860 C.ar  501  8NP501      0.0031
      2  C5        17.9190  -10.7010    2.8700 C.ar  501  8NP501      0.0031
      3  C6        16.3300  -10.2850    1.1320 C.ar  501  8NP501      0.0031
      4  C7        14.2200   -9.9190    5.0930 C.ar  501  8NP501      0.0375
      5  C8        13.3300  -12.0080    5.8420 C.ar  501  8NP501      0.0375
      6  C10       15.3240  -10.8930    1.8640 C.ar  501  8NP501      0.0356
      7  C13       13.4330   -9.9990    0.3620 C.2   501  8NP501     -0.0159
      8  C15       14.0030  -11.0070    1.2190 C.2   501  8NP501      0.0158
      9  C17       11.5000  -11.3940   -0.0900 C.2   501  8NP501      0.2492
     10  C1        12.8270   -9.9990    7.0360 C.ar  501  8NP501      0.0002
     11  C2        17.6160  -10.1870    1.6250 C.ar  501  8NP501      0.0002
     12  C3        13.5900   -9.2790    6.1400 C.ar  501  8NP501      0.0031
     13  C9        16.9270  -11.2880    3.6300 C.ar  501  8NP501      0.0375
     14  C11       14.0940  -11.2860    4.9470 C.ar  501  8NP501      0.1453
     15  C12       15.6410  -11.3750    3.1280 C.ar  501  8NP501      0.1452
     16  C14       13.3130  -12.1430    1.3580 C.2   501  8NP501      0.0884
     17  C16       12.2630  -10.1340   -0.2770 C.3   501  8NP501      0.1005
     18  C18       11.6920   -9.0910   -1.1560 C.3   501  8NP501      0.0144
     19  N19       12.1040  -12.3130    0.7430 N.am  501  8NP501     -0.1776
     20  O20       10.4260  -11.5940   -0.6410 O.2   501  8NP501     -0.2726
     21  O21       14.6950  -12.0120    3.9180 O.3   501  8NP501     -0.4535
@<TRIPOS>BOND
     1    10    12   ar
     2     6     8    1
     3     6    15   ar
     4    14    21    1
     5    15    21    1
     6     7     8    2
     7     7    17    1
     8    16    19    2
     9     8    16    1
    10    17    18    1
    11     9    17    1
    12     9    19    1
    13     9    20    2
    14     1     5   ar
    15     1    10   ar
    16     2    11   ar
    17     2    13   ar
    18     3     6   ar
    19     3    11   ar
    20     4    12   ar
    21     4    14   ar
    22     5    14   ar
    23    13    15   ar
