REMARK  Name = 5uvz_lig.pdb
REMARK  3 active torsions:
REMARK  status: ('A' for Active; 'I' for Inactive)
REMARK    1  A    between atoms: C10_6  and  C15_8
REMARK    2  A    between atoms: C11_14  and  O21_21
REMARK    3  A    between atoms: C12_15  and  O21_21
REMARK                            x       y       z     vdW  Elec       q    Type
REMARK                         _______ _______ _______ _____ _____    ______ ____
ROOT
ATOM      1  C5  8NP A 501      17.919 -10.701   2.870  0.00  0.00    +0.003 A 
ATOM      2  C6  8NP A 501      16.330 -10.285   1.132  0.00  0.00    +0.003 A 
ATOM      3  C10 8NP A 501      15.324 -10.893   1.864  0.00  0.00    +0.036 A 
ATOM      4  C2  8NP A 501      17.616 -10.187   1.625  0.00  0.00    +0.000 A 
ATOM      5  C9  8NP A 501      16.927 -11.288   3.630  0.00  0.00    +0.037 A 
ATOM      6  C12 8NP A 501      15.641 -11.375   3.128  0.00  0.00    +0.145 A 
ENDROOT
BRANCH   3   8
ATOM      7  C13 8NP A 501      13.433  -9.999   0.362  0.00  0.00    -0.016 C 
ATOM      8  C15 8NP A 501      14.003 -11.007   1.219  0.00  0.00    +0.016 C 
ATOM      9  C17 8NP A 501      11.500 -11.394  -0.090  0.00  0.00    +0.249 C 
ATOM     10  C14 8NP A 501      13.313 -12.143   1.358  0.00  0.00    +0.088 C 
ATOM     11  C16 8NP A 501      12.263 -10.134  -0.277  0.00  0.00    +0.101 C 
ATOM     12  C18 8NP A 501      11.692  -9.091  -1.156  0.00  0.00    +0.014 C 
ATOM     13  N19 8NP A 501      12.104 -12.313   0.743  0.00  0.00    -0.178 NA
ATOM     14  O20 8NP A 501      10.426 -11.594  -0.641  0.00  0.00    -0.273 OA
ENDBRANCH   3   8
BRANCH   6  15
ATOM     15  O21 8NP A 501      14.695 -12.012   3.918  0.00  0.00    -0.454 OA
BRANCH  15  21
ATOM     16  C4  8NP A 501      12.697 -11.364   6.886  0.00  0.00    +0.003 A 
ATOM     17  C7  8NP A 501      14.220  -9.919   5.093  0.00  0.00    +0.037 A 
ATOM     18  C8  8NP A 501      13.330 -12.008   5.842  0.00  0.00    +0.037 A 
ATOM     19  C1  8NP A 501      12.827  -9.999   7.036  0.00  0.00    +0.000 A 
ATOM     20  C3  8NP A 501      13.590  -9.279   6.140  0.00  0.00    +0.003 A 
ATOM     21  C11 8NP A 501      14.094 -11.286   4.947  0.00  0.00    +0.145 A 
ENDBRANCH  15  21
ENDBRANCH   6  15
TORSDOF 3
