REMARK  Name = 
REMARK  1 active torsions:
REMARK  status: ('A' for Active; 'I' for Inactive)
REMARK    1  A    between atoms: C_8  and  N_12
REMARK                            x       y       z     vdW  Elec       q    Type
REMARK                         _______ _______ _______ _____ _____    ______ ____
ROOT
ATOM      1 BR   UNL     1       8.908   2.024  -1.353  0.00  0.00    -0.046 Br
ATOM      2  C   UNL     1       7.512   1.084  -0.500  0.00  0.00    +0.068 A 
ATOM      3  C   UNL     1       7.586  -0.241  -0.131  0.00  0.00    +0.065 A 
ATOM      4  S   UNL     1       6.131  -0.764   0.621  0.00  0.00    -0.089 S 
ATOM      5  C   UNL     1       5.442   0.776   0.454  0.00  0.00    +0.102 A 
ATOM      6  C   UNL     1       6.277   1.675  -0.157  0.00  0.00    +0.162 A 
ATOM      7  O   UNL     1       5.891   2.961  -0.363  0.00  0.00    -0.439 OA
ATOM      8  C   UNL     1       4.643   3.402   0.120  0.00  0.00    +0.193 A 
ATOM      9  C   UNL     1       3.782   2.551   0.718  0.00  0.00    +0.115 A 
ATOM     10  C   UNL     1       4.131   1.125   0.912  0.00  0.00    +0.201 A 
ATOM     11  O   UNL     1       3.319   0.371   1.440  0.00  0.00    -0.286 OA
ENDROOT
BRANCH   8  12
ATOM     12  N   UNL     1       4.390   4.769  -0.036  0.00  0.00    -0.297 N 
ATOM     13  C   UNL     1       4.975   5.554  -1.149  0.00  0.00    +0.136 C 
ATOM     14  C   UNL     1       5.316   6.976  -0.679  0.00  0.00    +0.179 C 
ATOM     15  O   UNL     1       4.167   7.640  -0.131  0.00  0.00    -0.377 OA
ATOM     16  C   UNL     1       3.664   6.902   0.992  0.00  0.00    +0.179 C 
ATOM     17  C   UNL     1       3.254   5.476   0.595  0.00  0.00    +0.136 C 
ENDBRANCH   8  12
TORSDOF 1
