REMARK  Name = 
REMARK  1 active torsions:
REMARK  status: ('A' for Active; 'I' for Inactive)
REMARK    1  A    between atoms: C_8  and  N_12
REMARK                            x       y       z     vdW  Elec       q    Type
REMARK                         _______ _______ _______ _____ _____    ______ ____
ROOT
ATOM      1 BR   UNL     1       8.900   1.953  -1.491  0.00  0.00    -0.046 Br
ATOM      2  C   UNL     1       7.491   1.035  -0.641  0.00  0.00    +0.068 A 
ATOM      3  C   UNL     1       7.549  -0.289  -0.264  0.00  0.00    +0.065 A 
ATOM      4  S   UNL     1       6.085  -0.795   0.482  0.00  0.00    -0.089 S 
ATOM      5  C   UNL     1       5.412   0.750   0.301  0.00  0.00    +0.102 A 
ATOM      6  C   UNL     1       6.257   1.640  -0.309  0.00  0.00    +0.162 A 
ATOM      7  O   UNL     1       5.882   2.929  -0.524  0.00  0.00    -0.439 OA
ATOM      8  C   UNL     1       4.633   3.379  -0.046  0.00  0.00    +0.193 A 
ATOM      9  C   UNL     1       3.765   2.535   0.549  0.00  0.00    +0.115 A 
ATOM     10  C   UNL     1       4.103   1.110   0.749  0.00  0.00    +0.201 A 
ATOM     11  O   UNL     1       3.280   0.363   1.275  0.00  0.00    -0.286 OA
ENDROOT
BRANCH   8  12
ATOM     12  N   UNL     1       4.382   4.747  -0.201  0.00  0.00    -0.297 N 
ATOM     13  C   UNL     1       4.958   5.534  -1.315  0.00  0.00    +0.136 C 
ATOM     14  C   UNL     1       5.305   6.953  -0.838  0.00  0.00    +0.179 C 
ATOM     15  O   UNL     1       4.158   7.617  -0.283  0.00  0.00    -0.377 OA
ATOM     16  C   UNL     1       3.655   6.875   0.837  0.00  0.00    +0.179 C 
ATOM     17  C   UNL     1       3.246   5.452   0.435  0.00  0.00    +0.136 C 
ENDBRANCH   8  12
TORSDOF 1
