REMARK  Name = 
REMARK  1 active torsions:
REMARK  status: ('A' for Active; 'I' for Inactive)
REMARK    1  A    between atoms: C_8  and  N_12
REMARK                            x       y       z     vdW  Elec       q    Type
REMARK                         _______ _______ _______ _____ _____    ______ ____
ROOT
ATOM      1 BR   UNL     1       8.744   1.936  -1.425  0.00  0.00    -0.046 Br
ATOM      2  C   UNL     1       7.344   1.006  -0.575  0.00  0.00    +0.068 A 
ATOM      3  C   UNL     1       7.408  -0.320  -0.203  0.00  0.00    +0.065 A 
ATOM      4  S   UNL     1       5.946  -0.833   0.544  0.00  0.00    -0.089 S 
ATOM      5  C   UNL     1       5.265   0.710   0.369  0.00  0.00    +0.102 A 
ATOM      6  C   UNL     1       6.108   1.604  -0.239  0.00  0.00    +0.162 A 
ATOM      7  O   UNL     1       5.730   2.891  -0.449  0.00  0.00    -0.439 OA
ATOM      8  C   UNL     1       4.481   3.338   0.026  0.00  0.00    +0.193 A 
ATOM      9  C   UNL     1       3.612   2.493   0.620  0.00  0.00    +0.115 A 
ATOM     10  C   UNL     1       3.951   1.063   0.816  0.00  0.00    +0.201 A 
ATOM     11  O   UNL     1       3.133   0.315   1.341  0.00  0.00    -0.286 OA
ENDROOT
BRANCH   8  12
ATOM     12  N   UNL     1       4.235   4.706  -0.136  0.00  0.00    -0.297 N 
ATOM     13  C   UNL     1       4.827   5.485  -1.249  0.00  0.00    +0.136 C 
ATOM     14  C   UNL     1       5.175   6.907  -0.784  0.00  0.00    +0.179 C 
ATOM     15  O   UNL     1       4.027   7.578  -0.239  0.00  0.00    -0.377 OA
ATOM     16  C   UNL     1       3.521   6.847   0.886  0.00  0.00    +0.179 C 
ATOM     17  C   UNL     1       3.103   5.422   0.493  0.00  0.00    +0.136 C 
ENDBRANCH   8  12
TORSDOF 1
