REMARK  Name = 
REMARK  1 active torsions:
REMARK  status: ('A' for Active; 'I' for Inactive)
REMARK    1  A    between atoms: C_8  and  N_12
REMARK                            x       y       z     vdW  Elec       q    Type
REMARK                         _______ _______ _______ _____ _____    ______ ____
ROOT
ATOM      1 BR   UNL     1       8.831   1.852  -1.489  0.00  0.00    -0.046 Br
ATOM      2  C   UNL     1       7.415   0.951  -0.632  0.00  0.00    +0.068 A 
ATOM      3  C   UNL     1       7.464  -0.371  -0.246  0.00  0.00    +0.065 A 
ATOM      4  S   UNL     1       6.002  -0.864   0.507  0.00  0.00    -0.089 S 
ATOM      5  C   UNL     1       5.338   0.684   0.318  0.00  0.00    +0.102 A 
ATOM      6  C   UNL     1       6.183   1.569  -0.302  0.00  0.00    +0.162 A 
ATOM      7  O   UNL     1       5.812   2.858  -0.522  0.00  0.00    -0.439 OA
ATOM      8  C   UNL     1       4.567   3.312  -0.039  0.00  0.00    +0.193 A 
ATOM      9  C   UNL     1       3.698   2.473   0.563  0.00  0.00    +0.115 A 
ATOM     10  C   UNL     1       4.032   1.051   0.770  0.00  0.00    +0.201 A 
ATOM     11  O   UNL     1       3.210   0.311   1.307  0.00  0.00    -0.286 OA
ENDROOT
BRANCH   8  12
ATOM     12  N   UNL     1       4.305   4.675  -0.190  0.00  0.00    -0.297 N 
ATOM     13  C   UNL     1       4.867   5.465  -1.307  0.00  0.00    +0.136 C 
ATOM     14  C   UNL     1       5.219   6.877  -0.821  0.00  0.00    +0.179 C 
ATOM     15  O   UNL     1       4.075   7.541  -0.257  0.00  0.00    -0.377 OA
ATOM     16  C   UNL     1       3.572   6.794   0.858  0.00  0.00    +0.179 C 
ATOM     17  C   UNL     1       3.165   5.372   0.450  0.00  0.00    +0.136 C 
ENDBRANCH   8  12
TORSDOF 1
