REMARK  Name = 
REMARK  1 active torsions:
REMARK  status: ('A' for Active; 'I' for Inactive)
REMARK    1  A    between atoms: C_8  and  N_12
REMARK                            x       y       z     vdW  Elec       q    Type
REMARK                         _______ _______ _______ _____ _____    ______ ____
ROOT
ATOM      1 BR   UNL     1       8.914   2.005  -1.358  0.00  0.00    -0.046 Br
ATOM      2  C   UNL     1       7.509   1.092  -0.494  0.00  0.00    +0.068 A 
ATOM      3  C   UNL     1       7.571  -0.229  -0.107  0.00  0.00    +0.065 A 
ATOM      4  S   UNL     1       6.112  -0.733   0.648  0.00  0.00    -0.089 S 
ATOM      5  C   UNL     1       5.435   0.810   0.460  0.00  0.00    +0.102 A 
ATOM      6  C   UNL     1       6.275   1.698  -0.160  0.00  0.00    +0.162 A 
ATOM      7  O   UNL     1       5.893   2.986  -0.381  0.00  0.00    -0.439 OA
ATOM      8  C   UNL     1       4.648   3.433   0.099  0.00  0.00    +0.193 A 
ATOM      9  C   UNL     1       3.783   2.592   0.702  0.00  0.00    +0.115 A 
ATOM     10  C   UNL     1       4.126   1.169   0.910  0.00  0.00    +0.201 A 
ATOM     11  O   UNL     1       3.311   0.423   1.444  0.00  0.00    -0.286 OA
ENDROOT
BRANCH   8  12
ATOM     12  N   UNL     1       4.390   4.800  -0.064  0.00  0.00    -0.297 N 
ATOM     13  C   UNL     1       4.966   5.584  -1.178  0.00  0.00    +0.136 C 
ATOM     14  C   UNL     1       5.316   7.002  -0.701  0.00  0.00    +0.179 C 
ATOM     15  O   UNL     1       4.171   7.668  -0.144  0.00  0.00    -0.377 OA
ATOM     16  C   UNL     1       3.667   6.927   0.975  0.00  0.00    +0.179 C 
ATOM     17  C   UNL     1       3.255   5.504   0.573  0.00  0.00    +0.136 C 
ENDBRANCH   8  12
TORSDOF 1
